/*--------------------------------*- C++ -*----------------------------------*\
| =========                 |                                                 |
| \\      /  F ield         | OpenFOAM: The Open Source CFD Toolbox           |
|  \\    /   O peration     | Version:  3.0.1                                 |
|   \\  /    A nd           | Web:      www.OpenFOAM.org                      |
|    \\/     M anipulation  |                                                 |
\*---------------------------------------------------------------------------*/
FoamFile
{
    version     2.0;
    format      ascii;
    class       polyBoundaryMesh;
    location    "constant/polyMesh";
    object      boundary;
}
// * * * * * * * * * * * * * * * * * * * * * * * * * * * * * * * * * * * * * //

6
(
    outlet
    {
        type            patch;
        nFaces          400;
        startFace       1486047;
    }
    inlet
    {
        type            patch;
        nFaces          400;
        startFace       1486447;
    }
    sides
    {
        type            patch;
        nFaces          3200;
        startFace       1486847;
    }
    propeller
    {
        type            wall;
        inGroups        1(wall);
        nFaces          104756;
        startFace       1490047;
    }
    innerCylinder
    {
        type            wall;
        inGroups        1(wall);
        nFaces          0;
        startFace       1594803;
    }
    innerCylinder_slave
    {
        type            wall;
        inGroups        1(wall);
        nFaces          0;
        startFace       1594803;
    }
)

// ************************************************************************* //
