/*--------------------------------*- C++ -*----------------------------------*\
  =========                 |
  \\      /  F ield         | OpenFOAM: The Open Source CFD Toolbox
   \\    /   O peration     | Website:  https://openfoam.org
    \\  /    A nd           | Version:  7
     \\/     M anipulation  |
\*---------------------------------------------------------------------------*/
FoamFile
{
    version     2.0;
    format      ascii;
    class       extendedFeatureEdgeMesh;
    location    "constant/extendedFeatureEdgeMesh";
    object      MicrochannelFluidVolume.extendedFeatureEdgeMesh;
}
// * * * * * * * * * * * * * * * * * * * * * * * * * * * * * * * * * * * * * //

// points

1020
(
(0.03181281 -0.0071 0.001498684)
(0.03175 -0.0071 0.0015)
(0.03187552 -0.0071 0.001494739)
(0.031938 -0.0071 0.001488172)
(0.03200015 -0.0071 0.001478994)
(0.03206187 -0.0071 0.001467221)
(0.03212303 -0.0071 0.001452875)
(0.03218355 -0.0071 0.001435979)
(0.0322433 -0.0071 0.001416565)
(0.03230219 -0.0071 0.001394665)
(0.0323601 -0.0071 0.001370318)
(0.03241695 -0.0071 0.001343568)
(0.03247263 -0.0071 0.00131446)
(0.03252704 -0.0071 0.001283046)
(0.03258009 -0.0071 0.001249382)
(0.03263168 -0.0071 0.001213525)
(0.03268172 -0.0071 0.00117554)
(0.03273013 -0.0071 0.001135493)
(0.03282171 -0.0071 0.001049495)
(0.03277682 -0.0071 0.001093453)
(0.03290577 -0.0071 0.000956136)
(0.03286472 -0.0071 0.001003696)
(0.03294479 -0.0071 0.0009068987)
(0.03298172 -0.0071 0.0008560704)
(0.03301649 -0.0071 0.0008037402)
(0.03304904 -0.0071 0.00075)
(0.03307931 -0.0071 0.0006949441)
(0.03310724 -0.0071 0.0006386689)
(0.03313279 -0.0071 0.0005812734)
(0.03315592 -0.0071 0.0005228581)
(0.03317658 -0.0071 0.0004635255)
(0.03319474 -0.0071 0.0004033797)
(0.03321037 -0.0071 0.0003425263)
(0.03322343 -0.0071 0.000281072)
(0.03323391 -0.0071 0.0002191245)
(0.03324178 -0.0071 0.0001567927)
(0.03324704 -0.0071 9.418578e-05)
(0.03324967 -0.0071 3.141363e-05)
(0.03324967 -0.0071 -3.141363e-05)
(0.03324704 -0.0071 -9.418578e-05)
(0.03324178 -0.0071 -0.0001567927)
(0.03323391 -0.0071 -0.0002191245)
(0.03322343 -0.0071 -0.000281072)
(0.03321037 -0.0071 -0.0003425263)
(0.03319474 -0.0071 -0.0004033797)
(0.03317658 -0.0071 -0.0004635255)
(0.03315592 -0.0071 -0.0005228581)
(0.03313279 -0.0071 -0.0005812734)
(0.03310724 -0.0071 -0.0006386689)
(0.03307931 -0.0071 -0.0006949441)
(0.03304904 -0.0071 -0.00075)
(0.03301649 -0.0071 -0.0008037402)
(0.03298172 -0.0071 -0.0008560704)
(0.03294479 -0.0071 -0.0009068987)
(0.03290577 -0.0071 -0.000956136)
(0.03286472 -0.0071 -0.001003696)
(0.03282171 -0.0071 -0.001049495)
(0.03277682 -0.0071 -0.001093453)
(0.03273013 -0.0071 -0.001135493)
(0.03268172 -0.0071 -0.00117554)
(0.03263168 -0.0071 -0.001213525)
(0.03258009 -0.0071 -0.001249382)
(0.03252704 -0.0071 -0.001283046)
(0.03247263 -0.0071 -0.00131446)
(0.03241695 -0.0071 -0.001343568)
(0.0323601 -0.0071 -0.001370318)
(0.03230219 -0.0071 -0.001394665)
(0.0322433 -0.0071 -0.001416565)
(0.03218355 -0.0071 -0.001435979)
(0.03212303 -0.0071 -0.001452875)
(0.03206187 -0.0071 -0.001467221)
(0.03200015 -0.0071 -0.001478994)
(0.031938 -0.0071 -0.001488172)
(0.03187552 -0.0071 -0.001494739)
(0.03181281 -0.0071 -0.001498684)
(0.03175 -0.0071 -0.0015)
(0.03168719 -0.0071 -0.001498684)
(0.03162448 -0.0071 -0.001494739)
(0.031562 -0.0071 -0.001488172)
(0.03149985 -0.0071 -0.001478994)
(0.03143813 -0.0071 -0.001467221)
(0.03137697 -0.0071 -0.001452875)
(0.03131645 -0.0071 -0.001435979)
(0.0312567 -0.0071 -0.001416565)
(0.03119781 -0.0071 -0.001394665)
(0.0311399 -0.0071 -0.001370318)
(0.03108305 -0.0071 -0.001343568)
(0.03102737 -0.0071 -0.00131446)
(0.03097296 -0.0071 -0.001283046)
(0.03091991 -0.0071 -0.001249382)
(0.03086832 -0.0071 -0.001213525)
(0.03081828 -0.0071 -0.00117554)
(0.03076987 -0.0071 -0.001135493)
(0.03072318 -0.0071 -0.001093453)
(0.03067829 -0.0071 -0.001049495)
(0.03063528 -0.0071 -0.001003696)
(0.03059423 -0.0071 -0.000956136)
(0.03055521 -0.0071 -0.0009068987)
(0.03051828 -0.0071 -0.0008560704)
(0.03048351 -0.0071 -0.0008037402)
(0.03045096 -0.0071 -0.00075)
(0.03042069 -0.0071 -0.0006949441)
(0.03039276 -0.0071 -0.0006386689)
(0.03036721 -0.0071 -0.0005812734)
(0.03034408 -0.0071 -0.0005228581)
(0.03032342 -0.0071 -0.0004635255)
(0.03030526 -0.0071 -0.0004033797)
(0.03028963 -0.0071 -0.0003425263)
(0.03027657 -0.0071 -0.000281072)
(0.03026609 -0.0071 -0.0002191245)
(0.03025822 -0.0071 -0.0001567927)
(0.03025296 -0.0071 -9.418578e-05)
(0.03025033 -0.0071 -3.141363e-05)
(0.03025033 -0.0071 3.141363e-05)
(0.03025296 -0.0071 9.418578e-05)
(0.03025822 -0.0071 0.0001567927)
(0.03026609 -0.0071 0.0002191245)
(0.03027657 -0.0071 0.000281072)
(0.03028963 -0.0071 0.0003425263)
(0.03030526 -0.0071 0.0004033797)
(0.03032342 -0.0071 0.0004635255)
(0.03034408 -0.0071 0.0005228581)
(0.03036721 -0.0071 0.0005812734)
(0.03039276 -0.0071 0.0006386689)
(0.03042069 -0.0071 0.0006949441)
(0.03045096 -0.0071 0.00075)
(0.03048351 -0.0071 0.0008037402)
(0.03051828 -0.0071 0.0008560704)
(0.03055521 -0.0071 0.0009068987)
(0.03059423 -0.0071 0.000956136)
(0.03063528 -0.0071 0.001003696)
(0.03067829 -0.0071 0.001049495)
(0.03072318 -0.0071 0.001093453)
(0.03076987 -0.0071 0.001135493)
(0.03081828 -0.0071 0.00117554)
(0.03086832 -0.0071 0.001213525)
(0.03091991 -0.0071 0.001249382)
(0.03097296 -0.0071 0.001283046)
(0.03102737 -0.0071 0.00131446)
(0.03108305 -0.0071 0.001343568)
(0.0311399 -0.0071 0.001370318)
(0.03119781 -0.0071 0.001394665)
(0.0312567 -0.0071 0.001416565)
(0.03131645 -0.0071 0.001435979)
(0.03137697 -0.0071 0.001452875)
(0.03143813 -0.0071 0.001467221)
(0.03149985 -0.0071 0.001478994)
(0.031562 -0.0071 0.001488172)
(0.03162448 -0.0071 0.001494739)
(0.03168719 -0.0071 0.001498684)
(0.03175 -0.0061 -0.0015)
(0.03181281 -0.0061 -0.001498684)
(0.03187552 -0.0061 -0.001494739)
(0.031938 -0.0061 -0.001488172)
(0.03200015 -0.0061 -0.001478994)
(0.03206187 -0.0061 -0.001467221)
(0.03212303 -0.0061 -0.001452875)
(0.03218355 -0.0061 -0.001435979)
(0.0322433 -0.0061 -0.001416565)
(0.03230219 -0.0061 -0.001394665)
(0.0323601 -0.0061 -0.001370318)
(0.03241695 -0.0061 -0.001343568)
(0.03247263 -0.0061 -0.00131446)
(0.03252704 -0.0061 -0.001283046)
(0.03258009 -0.0061 -0.001249382)
(0.03263168 -0.0061 -0.001213525)
(0.03268172 -0.0061 -0.00117554)
(0.03273013 -0.0061 -0.001135493)
(0.03277682 -0.0061 -0.001093453)
(0.03282171 -0.0061 -0.001049495)
(0.03286472 -0.0061 -0.001003696)
(0.03290577 -0.0061 -0.000956136)
(0.03294479 -0.0061 -0.0009068987)
(0.03298172 -0.0061 -0.0008560704)
(0.03301649 -0.0061 -0.0008037402)
(0.03304904 -0.0061 -0.00075)
(0.03307931 -0.0061 -0.0006949441)
(0.03310724 -0.0061 -0.0006386689)
(0.03313279 -0.0061 -0.0005812734)
(0.03315592 -0.0061 -0.0005228581)
(0.03317658 -0.0061 -0.0004635255)
(0.03319474 -0.0061 -0.0004033797)
(0.03321037 -0.0061 -0.0003425263)
(0.03322343 -0.0061 -0.000281072)
(0.03323391 -0.0061 -0.0002191245)
(0.03324178 -0.0061 -0.0001567927)
(0.03324704 -0.0061 -9.418578e-05)
(0.03324967 -0.0061 -3.141363e-05)
(0.03324967 -0.0061 3.141363e-05)
(0.03324704 -0.0061 9.418578e-05)
(0.03324178 -0.0061 0.0001567927)
(0.03323391 -0.0061 0.0002191245)
(0.03322343 -0.0061 0.000281072)
(0.03321037 -0.0061 0.0003425263)
(0.03319474 -0.0061 0.0004033797)
(0.03317658 -0.0061 0.0004635255)
(0.03315592 -0.0061 0.0005228581)
(0.03313279 -0.0061 0.0005812734)
(0.03310724 -0.0061 0.0006386689)
(0.03307931 -0.0061 0.0006949441)
(0.03304904 -0.0061 0.00075)
(0.03301649 -0.0061 0.0008037402)
(0.03298172 -0.0061 0.0008560704)
(0.03294479 -0.0061 0.0009068987)
(0.03290577 -0.0061 0.000956136)
(0.03286472 -0.0061 0.001003696)
(0.03282171 -0.0061 0.001049495)
(0.03277682 -0.0061 0.001093453)
(0.03273013 -0.0061 0.001135493)
(0.03268172 -0.0061 0.00117554)
(0.03263168 -0.0061 0.001213525)
(0.03258009 -0.0061 0.001249382)
(0.03252704 -0.0061 0.001283046)
(0.03247263 -0.0061 0.00131446)
(0.03241695 -0.0061 0.001343568)
(0.0323601 -0.0061 0.001370318)
(0.03230219 -0.0061 0.001394665)
(0.0322433 -0.0061 0.001416565)
(0.03218355 -0.0061 0.001435979)
(0.03212303 -0.0061 0.001452875)
(0.03206187 -0.0061 0.001467221)
(0.03200015 -0.0061 0.001478994)
(0.031938 -0.0061 0.001488172)
(0.03187552 -0.0061 0.001494739)
(0.03181281 -0.0061 0.001498684)
(0.03175 -0.0061 0.0015)
(0.03168719 -0.0061 0.001498684)
(0.03162448 -0.0061 0.001494739)
(0.031562 -0.0061 0.001488172)
(0.03149985 -0.0061 0.001478994)
(0.03143813 -0.0061 0.001467221)
(0.03137697 -0.0061 0.001452875)
(0.03131645 -0.0061 0.001435979)
(0.0312567 -0.0061 0.001416565)
(0.03119781 -0.0061 0.001394665)
(0.0311399 -0.0061 0.001370318)
(0.03108305 -0.0061 0.001343568)
(0.03102737 -0.0061 0.00131446)
(0.03097296 -0.0061 0.001283046)
(0.03091991 -0.0061 0.001249382)
(0.03086832 -0.0061 0.001213525)
(0.03081828 -0.0061 0.00117554)
(0.03076987 -0.0061 0.001135493)
(0.03072318 -0.0061 0.001093453)
(0.03067829 -0.0061 0.001049495)
(0.03063528 -0.0061 0.001003696)
(0.03059423 -0.0061 0.000956136)
(0.03055521 -0.0061 0.0009068987)
(0.03051828 -0.0061 0.0008560704)
(0.03048351 -0.0061 0.0008037402)
(0.03045096 -0.0061 0.00075)
(0.03042069 -0.0061 0.0006949441)
(0.03039276 -0.0061 0.0006386689)
(0.03036721 -0.0061 0.0005812734)
(0.03034408 -0.0061 0.0005228581)
(0.03032342 -0.0061 0.0004635255)
(0.03030526 -0.0061 0.0004033797)
(0.03028963 -0.0061 0.0003425263)
(0.03027657 -0.0061 0.000281072)
(0.03026609 -0.0061 0.0002191245)
(0.03025822 -0.0061 0.0001567927)
(0.03025296 -0.0061 9.418578e-05)
(0.03025033 -0.0061 3.141363e-05)
(0.03025033 -0.0061 -3.141363e-05)
(0.03025296 -0.0061 -9.418578e-05)
(0.03025822 -0.0061 -0.0001567927)
(0.03026609 -0.0061 -0.0002191245)
(0.03027657 -0.0061 -0.000281072)
(0.03028963 -0.0061 -0.0003425263)
(0.03030526 -0.0061 -0.0004033797)
(0.03032342 -0.0061 -0.0004635255)
(0.03034408 -0.0061 -0.0005228581)
(0.03036721 -0.0061 -0.0005812734)
(0.03039276 -0.0061 -0.0006386689)
(0.03042069 -0.0061 -0.0006949441)
(0.03045096 -0.0061 -0.00075)
(0.03048351 -0.0061 -0.0008037402)
(0.03051828 -0.0061 -0.0008560704)
(0.03055521 -0.0061 -0.0009068987)
(0.03059423 -0.0061 -0.000956136)
(0.03063528 -0.0061 -0.001003696)
(0.03067829 -0.0061 -0.001049495)
(0.03072318 -0.0061 -0.001093453)
(0.03076987 -0.0061 -0.001135493)
(0.03081828 -0.0061 -0.00117554)
(0.03086832 -0.0061 -0.001213525)
(0.03091991 -0.0061 -0.001249382)
(0.03097296 -0.0061 -0.001283046)
(0.03102737 -0.0061 -0.00131446)
(0.03108305 -0.0061 -0.001343568)
(0.0311399 -0.0061 -0.001370318)
(0.03119781 -0.0061 -0.001394665)
(0.0312567 -0.0061 -0.001416565)
(0.03131645 -0.0061 -0.001435979)
(0.03137697 -0.0061 -0.001452875)
(0.03143813 -0.0061 -0.001467221)
(0.03149985 -0.0061 -0.001478994)
(0.031562 -0.0061 -0.001488172)
(0.03162448 -0.0061 -0.001494739)
(0.03168719 -0.0061 -0.001498684)
(-0.03205234 -0.002 -0.0006863592)
(-0.03209247 -0.002 -0.0006672428)
(-0.03201115 -0.002 -0.0007030647)
(-0.03196904 -0.002 -0.0007173007)
(-0.03192616 -0.002 -0.0007290172)
(-0.03188267 -0.002 -0.0007381729)
(-0.0318387 -0.002 -0.0007447358)
(-0.03175 -0.002 -0.00075)
(-0.03179443 -0.002 -0.0007486828)
(-0.03179443 -0.002 0.0007486828)
(-0.03175 -0.002 0.00075)
(-0.0318387 -0.002 0.0007447358)
(-0.03188267 -0.002 0.0007381729)
(-0.03192616 -0.002 0.0007290172)
(-0.03196904 -0.002 0.0007173007)
(-0.03201115 -0.002 0.0007030647)
(-0.03205234 -0.002 0.0006863592)
(-0.03209247 -0.002 0.0006672428)
(-0.0321314 -0.002 0.0006457827)
(-0.03216899 -0.002 0.0006220543)
(-0.0322051 -0.002 0.0005961408)
(-0.03223962 -0.002 0.0005681334)
(-0.03227241 -0.002 0.0005381304)
(-0.03230337 -0.002 0.0005062373)
(-0.03233239 -0.002 0.0004725659)
(-0.03235937 -0.002 0.0004372346)
(-0.0323842 -0.002 0.0004003675)
(-0.0324068 -0.002 0.0003620942)
(-0.0324271 -0.002 0.0003225489)
(-0.03244502 -0.002 0.0002818707)
(-0.03246049 -0.002 0.0002402024)
(-0.03247348 -0.002 0.0001976904)
(-0.03248392 -0.002 0.000154484)
(-0.03249178 -0.002 0.0001107349)
(-0.03249704 -0.002 6.659692e-05)
(-0.03249967 -0.002 2.2225e-05)
(-0.03249967 -0.002 -2.2225e-05)
(-0.03249704 -0.002 -6.659692e-05)
(-0.03249178 -0.002 -0.0001107349)
(-0.03248392 -0.002 -0.000154484)
(-0.03247348 -0.002 -0.0001976904)
(-0.03246049 -0.002 -0.0002402024)
(-0.03244502 -0.002 -0.0002818707)
(-0.0324271 -0.002 -0.0003225489)
(-0.0324068 -0.002 -0.0003620942)
(-0.0323842 -0.002 -0.0004003675)
(-0.03235937 -0.002 -0.0004372346)
(-0.03233239 -0.002 -0.0004725659)
(-0.03230337 -0.002 -0.0005062373)
(-0.03227241 -0.002 -0.0005381304)
(-0.03223962 -0.002 -0.0005681334)
(-0.0322051 -0.002 -0.0005961408)
(-0.03216899 -0.002 -0.0006220543)
(-0.0321314 -0.002 -0.0006457827)
(0.03192616 -0.002 0.0007290172)
(0.03196904 -0.002 0.0007173007)
(0.03201115 -0.002 0.0007030647)
(0.03188267 -0.002 0.0007381729)
(0.0318387 -0.002 0.0007447358)
(0.03205234 -0.002 0.0006863592)
(0.03209247 -0.002 0.0006672428)
(0.0321314 -0.002 0.0006457827)
(0.03216899 -0.002 0.0006220543)
(0.0322051 -0.002 0.0005961408)
(0.03223962 -0.002 0.0005681334)
(0.03227241 -0.002 0.0005381304)
(0.03230337 -0.002 0.0005062373)
(0.03233239 -0.002 0.0004725659)
(0.03235937 -0.002 0.0004372346)
(0.0323842 -0.002 0.0004003675)
(0.0324068 -0.002 0.0003620942)
(0.0324271 -0.002 0.0003225489)
(0.03244502 -0.002 0.0002818707)
(0.03246049 -0.002 0.0002402024)
(0.03247348 -0.002 0.0001976904)
(0.03248392 -0.002 0.000154484)
(0.03249178 -0.002 0.0001107349)
(0.03249704 -0.002 6.659692e-05)
(0.03249967 -0.002 2.2225e-05)
(0.03175 -0.002 0.00075)
(0.03175 -0.002 -0.00075)
(0.0318387 -0.002 -0.0007447358)
(0.03179443 -0.002 -0.0007486828)
(0.03249704 -0.002 -6.659692e-05)
(0.03249178 -0.002 -0.0001107349)
(0.03248392 -0.002 -0.000154484)
(0.03249967 -0.002 -2.2225e-05)
(0.03247348 -0.002 -0.0001976904)
(0.03246049 -0.002 -0.0002402024)
(0.03244502 -0.002 -0.0002818707)
(0.03196904 -0.002 -0.0007173007)
(0.03192616 -0.002 -0.0007290172)
(0.03205234 -0.002 -0.0006863592)
(0.03201115 -0.002 -0.0007030647)
(0.03188267 -0.002 -0.0007381729)
(0.03209247 -0.002 -0.0006672428)
(0.0321314 -0.002 -0.0006457827)
(0.0324271 -0.002 -0.0003225489)
(0.0324068 -0.002 -0.0003620942)
(0.0323842 -0.002 -0.0004003675)
(0.03223962 -0.002 -0.0005681334)
(0.0322051 -0.002 -0.0005961408)
(0.03216899 -0.002 -0.0006220543)
(0.03227241 -0.002 -0.0005381304)
(0.03233239 -0.002 -0.0004725659)
(0.03230337 -0.002 -0.0005062373)
(0.03235937 -0.002 -0.0004372346)
(0.03179443 -0.002 0.0007486828)
(-0.03168719 -0.0071 0.001498684)
(-0.03175 -0.0071 0.0015)
(-0.03162448 -0.0071 0.001494739)
(-0.031562 -0.0071 0.001488172)
(-0.03149985 -0.0071 0.001478994)
(-0.03143813 -0.0071 0.001467221)
(-0.03137697 -0.0071 0.001452875)
(-0.03131645 -0.0071 0.001435979)
(-0.0312567 -0.0071 0.001416565)
(-0.03119781 -0.0071 0.001394665)
(-0.0311399 -0.0071 0.001370318)
(-0.03108305 -0.0071 0.001343568)
(-0.03102737 -0.0071 0.00131446)
(-0.03097296 -0.0071 0.001283046)
(-0.03091991 -0.0071 0.001249382)
(-0.03086832 -0.0071 0.001213525)
(-0.03081828 -0.0071 0.00117554)
(-0.03076987 -0.0071 0.001135493)
(-0.03067829 -0.0071 0.001049495)
(-0.03072318 -0.0071 0.001093453)
(-0.03059423 -0.0071 0.000956136)
(-0.03063528 -0.0071 0.001003696)
(-0.03055521 -0.0071 0.0009068987)
(-0.03051828 -0.0071 0.0008560704)
(-0.03048351 -0.0071 0.0008037402)
(-0.03045096 -0.0071 0.00075)
(-0.03042069 -0.0071 0.0006949441)
(-0.03039276 -0.0071 0.0006386689)
(-0.03036721 -0.0071 0.0005812734)
(-0.03034408 -0.0071 0.0005228581)
(-0.03032342 -0.0071 0.0004635255)
(-0.03030526 -0.0071 0.0004033797)
(-0.03028963 -0.0071 0.0003425263)
(-0.03027657 -0.0071 0.000281072)
(-0.03026609 -0.0071 0.0002191245)
(-0.03025822 -0.0071 0.0001567927)
(-0.03025296 -0.0071 9.418578e-05)
(-0.03025033 -0.0071 3.141363e-05)
(-0.03025033 -0.0071 -3.141363e-05)
(-0.03025296 -0.0071 -9.418578e-05)
(-0.03025822 -0.0071 -0.0001567927)
(-0.03026609 -0.0071 -0.0002191245)
(-0.03027657 -0.0071 -0.000281072)
(-0.03028963 -0.0071 -0.0003425263)
(-0.03030526 -0.0071 -0.0004033797)
(-0.03032342 -0.0071 -0.0004635255)
(-0.03034408 -0.0071 -0.0005228581)
(-0.03036721 -0.0071 -0.0005812734)
(-0.03039276 -0.0071 -0.0006386689)
(-0.03042069 -0.0071 -0.0006949441)
(-0.03045096 -0.0071 -0.00075)
(-0.03048351 -0.0071 -0.0008037402)
(-0.03051828 -0.0071 -0.0008560704)
(-0.03055521 -0.0071 -0.0009068987)
(-0.03059423 -0.0071 -0.000956136)
(-0.03063528 -0.0071 -0.001003696)
(-0.03067829 -0.0071 -0.001049495)
(-0.03072318 -0.0071 -0.001093453)
(-0.03076987 -0.0071 -0.001135493)
(-0.03081828 -0.0071 -0.00117554)
(-0.03086832 -0.0071 -0.001213525)
(-0.03091991 -0.0071 -0.001249382)
(-0.03097296 -0.0071 -0.001283046)
(-0.03102737 -0.0071 -0.00131446)
(-0.03108305 -0.0071 -0.001343568)
(-0.0311399 -0.0071 -0.001370318)
(-0.03119781 -0.0071 -0.001394665)
(-0.0312567 -0.0071 -0.001416565)
(-0.03131645 -0.0071 -0.001435979)
(-0.03137697 -0.0071 -0.001452875)
(-0.03143813 -0.0071 -0.001467221)
(-0.03149985 -0.0071 -0.001478994)
(-0.031562 -0.0071 -0.001488172)
(-0.03162448 -0.0071 -0.001494739)
(-0.03168719 -0.0071 -0.001498684)
(-0.03175 -0.0071 -0.0015)
(-0.03181281 -0.0071 -0.001498684)
(-0.03187552 -0.0071 -0.001494739)
(-0.031938 -0.0071 -0.001488172)
(-0.03200015 -0.0071 -0.001478994)
(-0.03206187 -0.0071 -0.001467221)
(-0.03212303 -0.0071 -0.001452875)
(-0.03218355 -0.0071 -0.001435979)
(-0.0322433 -0.0071 -0.001416565)
(-0.03230219 -0.0071 -0.001394665)
(-0.0323601 -0.0071 -0.001370318)
(-0.03241695 -0.0071 -0.001343568)
(-0.03247263 -0.0071 -0.00131446)
(-0.03252704 -0.0071 -0.001283046)
(-0.03258009 -0.0071 -0.001249382)
(-0.03263168 -0.0071 -0.001213525)
(-0.03268172 -0.0071 -0.00117554)
(-0.03273013 -0.0071 -0.001135493)
(-0.03277682 -0.0071 -0.001093453)
(-0.03282171 -0.0071 -0.001049495)
(-0.03286472 -0.0071 -0.001003696)
(-0.03290577 -0.0071 -0.000956136)
(-0.03294479 -0.0071 -0.0009068987)
(-0.03298172 -0.0071 -0.0008560704)
(-0.03301649 -0.0071 -0.0008037402)
(-0.03304904 -0.0071 -0.00075)
(-0.03307931 -0.0071 -0.0006949441)
(-0.03310724 -0.0071 -0.0006386689)
(-0.03313279 -0.0071 -0.0005812734)
(-0.03315592 -0.0071 -0.0005228581)
(-0.03317658 -0.0071 -0.0004635255)
(-0.03319474 -0.0071 -0.0004033797)
(-0.03321037 -0.0071 -0.0003425263)
(-0.03322343 -0.0071 -0.000281072)
(-0.03323391 -0.0071 -0.0002191245)
(-0.03324178 -0.0071 -0.0001567927)
(-0.03324704 -0.0071 -9.418578e-05)
(-0.03324967 -0.0071 -3.141363e-05)
(-0.03324967 -0.0071 3.141363e-05)
(-0.03324704 -0.0071 9.418578e-05)
(-0.03324178 -0.0071 0.0001567927)
(-0.03323391 -0.0071 0.0002191245)
(-0.03322343 -0.0071 0.000281072)
(-0.03321037 -0.0071 0.0003425263)
(-0.03319474 -0.0071 0.0004033797)
(-0.03317658 -0.0071 0.0004635255)
(-0.03315592 -0.0071 0.0005228581)
(-0.03313279 -0.0071 0.0005812734)
(-0.03310724 -0.0071 0.0006386689)
(-0.03307931 -0.0071 0.0006949441)
(-0.03304904 -0.0071 0.00075)
(-0.03301649 -0.0071 0.0008037402)
(-0.03298172 -0.0071 0.0008560704)
(-0.03294479 -0.0071 0.0009068987)
(-0.03290577 -0.0071 0.000956136)
(-0.03286472 -0.0071 0.001003696)
(-0.03282171 -0.0071 0.001049495)
(-0.03277682 -0.0071 0.001093453)
(-0.03273013 -0.0071 0.001135493)
(-0.03268172 -0.0071 0.00117554)
(-0.03263168 -0.0071 0.001213525)
(-0.03258009 -0.0071 0.001249382)
(-0.03252704 -0.0071 0.001283046)
(-0.03247263 -0.0071 0.00131446)
(-0.03241695 -0.0071 0.001343568)
(-0.0323601 -0.0071 0.001370318)
(-0.03230219 -0.0071 0.001394665)
(-0.0322433 -0.0071 0.001416565)
(-0.03218355 -0.0071 0.001435979)
(-0.03212303 -0.0071 0.001452875)
(-0.03206187 -0.0071 0.001467221)
(-0.03200015 -0.0071 0.001478994)
(-0.031938 -0.0071 0.001488172)
(-0.03187552 -0.0071 0.001494739)
(-0.03181281 -0.0071 0.001498684)
(-0.03175 -0.0061 0.0015)
(-0.03181281 -0.0061 0.001498684)
(-0.03187552 -0.0061 0.001494739)
(-0.031938 -0.0061 0.001488172)
(-0.03200015 -0.0061 0.001478994)
(-0.03206187 -0.0061 0.001467221)
(-0.03212303 -0.0061 0.001452875)
(-0.03218355 -0.0061 0.001435979)
(-0.0322433 -0.0061 0.001416565)
(-0.03230219 -0.0061 0.001394665)
(-0.0323601 -0.0061 0.001370318)
(-0.03241695 -0.0061 0.001343568)
(-0.03247263 -0.0061 0.00131446)
(-0.03252704 -0.0061 0.001283046)
(-0.03258009 -0.0061 0.001249382)
(-0.03263168 -0.0061 0.001213525)
(-0.03268172 -0.0061 0.00117554)
(-0.03273013 -0.0061 0.001135493)
(-0.03277682 -0.0061 0.001093453)
(-0.03282171 -0.0061 0.001049495)
(-0.03286472 -0.0061 0.001003696)
(-0.03290577 -0.0061 0.000956136)
(-0.03294479 -0.0061 0.0009068987)
(-0.03298172 -0.0061 0.0008560704)
(-0.03301649 -0.0061 0.0008037402)
(-0.03304904 -0.0061 0.00075)
(-0.03307931 -0.0061 0.0006949441)
(-0.03310724 -0.0061 0.0006386689)
(-0.03313279 -0.0061 0.0005812734)
(-0.03315592 -0.0061 0.0005228581)
(-0.03317658 -0.0061 0.0004635255)
(-0.03319474 -0.0061 0.0004033797)
(-0.03321037 -0.0061 0.0003425263)
(-0.03322343 -0.0061 0.000281072)
(-0.03323391 -0.0061 0.0002191245)
(-0.03324178 -0.0061 0.0001567927)
(-0.03324704 -0.0061 9.418578e-05)
(-0.03324967 -0.0061 3.141363e-05)
(-0.03324967 -0.0061 -3.141363e-05)
(-0.03324704 -0.0061 -9.418578e-05)
(-0.03324178 -0.0061 -0.0001567927)
(-0.03323391 -0.0061 -0.0002191245)
(-0.03322343 -0.0061 -0.000281072)
(-0.03321037 -0.0061 -0.0003425263)
(-0.03319474 -0.0061 -0.0004033797)
(-0.03317658 -0.0061 -0.0004635255)
(-0.03315592 -0.0061 -0.0005228581)
(-0.03313279 -0.0061 -0.0005812734)
(-0.03310724 -0.0061 -0.0006386689)
(-0.03307931 -0.0061 -0.0006949441)
(-0.03304904 -0.0061 -0.00075)
(-0.03301649 -0.0061 -0.0008037402)
(-0.03298172 -0.0061 -0.0008560704)
(-0.03294479 -0.0061 -0.0009068987)
(-0.03290577 -0.0061 -0.000956136)
(-0.03286472 -0.0061 -0.001003696)
(-0.03282171 -0.0061 -0.001049495)
(-0.03277682 -0.0061 -0.001093453)
(-0.03273013 -0.0061 -0.001135493)
(-0.03268172 -0.0061 -0.00117554)
(-0.03263168 -0.0061 -0.001213525)
(-0.03258009 -0.0061 -0.001249382)
(-0.03252704 -0.0061 -0.001283046)
(-0.03247263 -0.0061 -0.00131446)
(-0.03241695 -0.0061 -0.001343568)
(-0.0323601 -0.0061 -0.001370318)
(-0.03230219 -0.0061 -0.001394665)
(-0.0322433 -0.0061 -0.001416565)
(-0.03218355 -0.0061 -0.001435979)
(-0.03212303 -0.0061 -0.001452875)
(-0.03206187 -0.0061 -0.001467221)
(-0.03200015 -0.0061 -0.001478994)
(-0.031938 -0.0061 -0.001488172)
(-0.03187552 -0.0061 -0.001494739)
(-0.03181281 -0.0061 -0.001498684)
(-0.03175 -0.0061 -0.0015)
(-0.03168719 -0.0061 -0.001498684)
(-0.03162448 -0.0061 -0.001494739)
(-0.031562 -0.0061 -0.001488172)
(-0.03149985 -0.0061 -0.001478994)
(-0.03143813 -0.0061 -0.001467221)
(-0.03137697 -0.0061 -0.001452875)
(-0.03131645 -0.0061 -0.001435979)
(-0.0312567 -0.0061 -0.001416565)
(-0.03119781 -0.0061 -0.001394665)
(-0.0311399 -0.0061 -0.001370318)
(-0.03108305 -0.0061 -0.001343568)
(-0.03102737 -0.0061 -0.00131446)
(-0.03097296 -0.0061 -0.001283046)
(-0.03091991 -0.0061 -0.001249382)
(-0.03086832 -0.0061 -0.001213525)
(-0.03081828 -0.0061 -0.00117554)
(-0.03076987 -0.0061 -0.001135493)
(-0.03072318 -0.0061 -0.001093453)
(-0.03067829 -0.0061 -0.001049495)
(-0.03063528 -0.0061 -0.001003696)
(-0.03059423 -0.0061 -0.000956136)
(-0.03055521 -0.0061 -0.0009068987)
(-0.03051828 -0.0061 -0.0008560704)
(-0.03048351 -0.0061 -0.0008037402)
(-0.03045096 -0.0061 -0.00075)
(-0.03042069 -0.0061 -0.0006949441)
(-0.03039276 -0.0061 -0.0006386689)
(-0.03036721 -0.0061 -0.0005812734)
(-0.03034408 -0.0061 -0.0005228581)
(-0.03032342 -0.0061 -0.0004635255)
(-0.03030526 -0.0061 -0.0004033797)
(-0.03028963 -0.0061 -0.0003425263)
(-0.03027657 -0.0061 -0.000281072)
(-0.03026609 -0.0061 -0.0002191245)
(-0.03025822 -0.0061 -0.0001567927)
(-0.03025296 -0.0061 -9.418578e-05)
(-0.03025033 -0.0061 -3.141363e-05)
(-0.03025033 -0.0061 3.141363e-05)
(-0.03025296 -0.0061 9.418578e-05)
(-0.03025822 -0.0061 0.0001567927)
(-0.03026609 -0.0061 0.0002191245)
(-0.03027657 -0.0061 0.000281072)
(-0.03028963 -0.0061 0.0003425263)
(-0.03030526 -0.0061 0.0004033797)
(-0.03032342 -0.0061 0.0004635255)
(-0.03034408 -0.0061 0.0005228581)
(-0.03036721 -0.0061 0.0005812734)
(-0.03039276 -0.0061 0.0006386689)
(-0.03042069 -0.0061 0.0006949441)
(-0.03045096 -0.0061 0.00075)
(-0.03048351 -0.0061 0.0008037402)
(-0.03051828 -0.0061 0.0008560704)
(-0.03055521 -0.0061 0.0009068987)
(-0.03059423 -0.0061 0.000956136)
(-0.03063528 -0.0061 0.001003696)
(-0.03067829 -0.0061 0.001049495)
(-0.03072318 -0.0061 0.001093453)
(-0.03076987 -0.0061 0.001135493)
(-0.03081828 -0.0061 0.00117554)
(-0.03086832 -0.0061 0.001213525)
(-0.03091991 -0.0061 0.001249382)
(-0.03097296 -0.0061 0.001283046)
(-0.03102737 -0.0061 0.00131446)
(-0.03108305 -0.0061 0.001343568)
(-0.0311399 -0.0061 0.001370318)
(-0.03119781 -0.0061 0.001394665)
(-0.0312567 -0.0061 0.001416565)
(-0.03131645 -0.0061 0.001435979)
(-0.03137697 -0.0061 0.001452875)
(-0.03143813 -0.0061 0.001467221)
(-0.03149985 -0.0061 0.001478994)
(-0.031562 -0.0061 0.001488172)
(-0.03162448 -0.0061 0.001494739)
(-0.03168719 -0.0061 0.001498684)
(0.03175 -0.005649355 -0.00075)
(0.03179443 -0.005649355 -0.0007486828)
(0.0318387 -0.005649355 -0.0007447358)
(0.03188267 -0.005649355 -0.0007381729)
(0.03192616 -0.005649355 -0.0007290172)
(0.03196904 -0.005649355 -0.0007173007)
(0.03201115 -0.005649355 -0.0007030647)
(0.03205234 -0.005649355 -0.0006863592)
(0.03209247 -0.005649355 -0.0006672428)
(0.0321314 -0.005649355 -0.0006457827)
(0.03216899 -0.005649355 -0.0006220543)
(0.0322051 -0.005649355 -0.0005961408)
(0.03223962 -0.005649355 -0.0005681334)
(0.03227241 -0.005649355 -0.0005381304)
(0.03230337 -0.005649355 -0.0005062373)
(0.03233239 -0.005649355 -0.0004725659)
(0.03235937 -0.005649355 -0.0004372346)
(0.0323842 -0.005649355 -0.0004003675)
(0.0324068 -0.005649355 -0.0003620942)
(0.0324271 -0.005649355 -0.0003225489)
(0.03244502 -0.005649355 -0.0002818707)
(0.03246049 -0.005649355 -0.0002402024)
(0.03247348 -0.005649355 -0.0001976904)
(0.03248392 -0.005649355 -0.000154484)
(0.03249178 -0.005649355 -0.0001107349)
(0.03249704 -0.005649355 -6.659692e-05)
(0.03249967 -0.005649355 -2.2225e-05)
(0.03249967 -0.005649355 2.2225e-05)
(0.03249704 -0.005649355 6.659692e-05)
(0.03249178 -0.005649355 0.0001107349)
(0.03248392 -0.005649355 0.000154484)
(0.03247348 -0.005649355 0.0001976904)
(0.03246049 -0.005649355 0.0002402024)
(0.03244502 -0.005649355 0.0002818707)
(0.0324271 -0.005649355 0.0003225489)
(0.0324068 -0.005649355 0.0003620942)
(0.0323842 -0.005649355 0.0004003675)
(0.03235937 -0.005649355 0.0004372346)
(0.03233239 -0.005649355 0.0004725659)
(0.03230337 -0.005649355 0.0005062373)
(0.03227241 -0.005649355 0.0005381304)
(0.03223962 -0.005649355 0.0005681334)
(0.0322051 -0.005649355 0.0005961408)
(0.03216899 -0.005649355 0.0006220543)
(0.0321314 -0.005649355 0.0006457827)
(0.03209247 -0.005649355 0.0006672428)
(0.03205234 -0.005649355 0.0006863592)
(0.03201115 -0.005649355 0.0007030647)
(0.03196904 -0.005649355 0.0007173007)
(0.03192616 -0.005649355 0.0007290172)
(0.03188267 -0.005649355 0.0007381729)
(0.0318387 -0.005649355 0.0007447358)
(0.03179443 -0.005649355 0.0007486828)
(0.03175 -0.005649355 0.00075)
(0.03131695 -0.002590035 0.0006123434)
(0.03128979 -0.002595498 0.0005922101)
(0.03134719 -0.002582118 0.0006326359)
(0.03137975 -0.002571888 0.0006522193)
(0.03141139 -0.00256059 0.000669216)
(0.0314442 -0.002547735 0.0006848608)
(0.03147826 -0.002533379 0.0006990744)
(0.03151429 -0.002517288 0.000711991)
(0.03155563 -0.002497928 0.0007243287)
(0.03153567 -0.002507378 -0.0007186922)
(0.03157789 -0.002487196 -0.0007299416)
(0.03149879 -0.002524313 -0.0007066912)
(0.03146394 -0.002539529 -0.0006933441)
(0.03142694 -0.002554632 -0.0006768754)
(0.03139466 -0.002566713 -0.0006604649)
(0.03136394 -0.002577049 -0.0006429812)
(0.03133496 -0.002585524 -0.0006246797)
(0.03130679 -0.002592282 -0.0006050361)
(0.03128168 -0.002596771 -0.0005858173)
(0.03126415 -0.002598857 0.0005713612)
(0.0312401 -0.0026 0.00055)
(0.0312401 -0.0026 -0.00055)
(0.03126032 -0.002599183 -0.000568077)
(0.03170557 -0.005649355 -0.0007486828)
(0.0316613 -0.005649355 -0.0007447358)
(0.03161733 -0.005649355 -0.0007381729)
(0.03157384 -0.005649355 -0.0007290172)
(0.03153096 -0.005649355 -0.0007173007)
(0.03148885 -0.005649355 -0.0007030647)
(0.03144766 -0.005649355 -0.0006863592)
(0.03140753 -0.005649355 -0.0006672428)
(0.0313686 -0.005649355 -0.0006457827)
(0.03133101 -0.005649355 -0.0006220543)
(0.0312949 -0.005649355 -0.0005961408)
(0.03126038 -0.005649355 -0.0005681334)
(0.03122759 -0.005649355 -0.0005381304)
(0.03119663 -0.005649355 -0.0005062373)
(0.03120866 -0.0026 -0.0005190841)
(0.03116761 -0.005649355 -0.0004725659)
(0.03117909 -0.0026 -0.0004863739)
(0.03114063 -0.005649355 -0.0004372346)
(0.03115149 -0.0026 -0.0004519825)
(0.0311158 -0.005649355 -0.0004003675)
(0.03112596 -0.0026 -0.0004160289)
(0.0310932 -0.005649355 -0.0003620942)
(0.03110259 -0.0026 -0.0003786372)
(0.0310729 -0.005649355 -0.0003225489)
(0.03108146 -0.0026 -0.0003399367)
(0.03105498 -0.005649355 -0.0002818707)
(0.03106264 -0.0026 -0.0003000613)
(0.03103951 -0.005649355 -0.0002402024)
(0.03104619 -0.0026 -0.0002591486)
(0.03102652 -0.005649355 -0.0001976904)
(0.03103218 -0.0026 -0.0002173402)
(0.03102065 -0.0026 -0.0001747806)
(0.03101608 -0.005649355 -0.000154484)
(0.03101164 -0.0026 -0.0001316168)
(0.03100822 -0.005649355 -0.0001107349)
(0.03100518 -0.0026 -8.799812e-05)
(0.03100296 -0.005649355 -6.659692e-05)
(0.0310013 -0.0026 -4.407523e-05)
(0.03100033 -0.005649355 -2.2225e-05)
(0.031 -0.0026 2.67046e-16)
(0.03100033 -0.005649355 2.2225e-05)
(0.0310013 -0.0026 4.407523e-05)
(0.03100296 -0.005649355 6.659692e-05)
(0.03100518 -0.0026 8.799812e-05)
(0.03100822 -0.005649355 0.0001107349)
(0.03101164 -0.0026 0.0001316168)
(0.03101608 -0.005649355 0.000154484)
(0.03102065 -0.0026 0.0001747806)
(0.03102652 -0.005649355 0.0001976904)
(0.03103218 -0.0026 0.0002173402)
(0.03103951 -0.005649355 0.0002402024)
(0.03104619 -0.0026 0.0002591486)
(0.03105498 -0.005649355 0.0002818707)
(0.03106264 -0.0026 0.0003000613)
(0.0310729 -0.005649355 0.0003225489)
(0.03108146 -0.0026 0.0003399367)
(0.0310932 -0.005649355 0.0003620942)
(0.03110259 -0.0026 0.0003786372)
(0.0311158 -0.005649355 0.0004003675)
(0.03112596 -0.0026 0.0004160289)
(0.03114063 -0.005649355 0.0004372346)
(0.03115149 -0.0026 0.0004519825)