/*--------------------------------*- C++ -*----------------------------------*\
| =========                 |                                                 |
| \\      /  F ield         | OpenFOAM: The Open Source CFD Toolbox           |
|  \\    /   O peration     | Version:  1.5                                   |
|   \\  /    A nd           | Web:      http://www.OpenFOAM.org               |
|    \\/     M anipulation  |                                                 |
\*---------------------------------------------------------------------------*/
FoamFile
{
    version     2.0;
    format      ascii;
    class       volScalarField;
    object      motionU;
}
// * * * * * * * * * * * * * * * * * * * * * * * * * * * * * * * * * * * * * //

dimensions      [0 1 -1 0 0 0 0];

internalField   uniform 0;

boundaryField
{
    outBoundary
    {
        type            zeroGradient;
    }
    inletBoundary
    {
        type            zeroGradient;//uniformFixedValue;
        value           uniform 0;
        uniformValue    constant 0;
    }
    SideWall
    {
        type            groovyBC;
        value           uniform 1;
        valueExpression "toFace(pointMotionUy)";
    }
}


// ************************************************************************* //
