/*--------------------------------*- C++ -*----------------------------------*\
| =========                 |                                                 |
| \\      /  F ield         | OpenFOAM: The Open Source CFD Toolbox           |
|  \\    /   O peration     | Version:  5.0                                   |
|   \\  /    A nd           | Web:      www.OpenFOAM.org                      |
|    \\/     M anipulation  |                                                 |
\*---------------------------------------------------------------------------*/
FoamFile
{
    version     2.0;
    format      ascii;
    class       volScalarField;
    location    "0";
    object      epsilon;
}
// * * * * * * * * * * * * * * * * * * * * * * * * * * * * * * * * * * * * * //

dimensions      [0 2 -3 0 0 0 0];

internalField   uniform 0.01;

boundaryField
{
    outBoundary
    {
        type            inletOutlet;
        inletValue      uniform 0.01;
        value           uniform 0.01;
    }
    inletBoundary
    {
        type            turbulentMixingLengthDissipationRateInlet;
        mixingLength    0.01;
        value           uniform 0.01;
    }
    SideWall
    {
        type            epsilonWallFunction;
        value           uniform 0.01;
    }
}


// ************************************************************************* //
