/*--------------------------------*- C++ -*----------------------------------*\
| =========                 |                                                 |
| \\      /  F ield         | OpenFOAM: The Open Source CFD Toolbox           |
|  \\    /   O peration     | Version:  2.1.x                                 |
|   \\  /    A nd           | Web:      www.OpenFOAM.org                      |
|    \\/     M anipulation  |                                                 |
\*---------------------------------------------------------------------------*/
FoamFile
{
    version     2.0;
    format      ascii;
    class       volVectorField;
    object      U;
}
// * * * * * * * * * * * * * * * * * * * * * * * * * * * * * * * * * * * * * //

dimensions      [0 1 -1 0 0 0 0];

internalField   uniform (1 0 0);

boundaryField
{
    #include "include/slipPatches"

    inlet
    {
        type            timeVaryingMappedFixedValue;
	setAverage      off;
        offset          (0 0 0);
    }

    outlet
    {
        type            zeroGradient;
    }

    ".*"
    {
        type fixedValue;
        value uniform (0 0 0);
    }
}

// ************************************************************************* //
