/*--------------------------------*- C++ -*----------------------------------*\
| =========                 |                                                 |
| \\      /  F ield         | OpenFOAM: The Open Source CFD Toolbox           |
|  \\    /   O peration     | Version:  v1812                                 |
|   \\  /    A nd           | Web:      www.OpenFOAM.com                      |
|    \\/     M anipulation  |                                                 |
\*---------------------------------------------------------------------------*/
FoamFile
{
    version     2.0;
    format      ascii;
    class       dictionary;
    object      blockMeshDict;
}
// * * * * * * * * * * * * * * * * * * * * * * * * * * * * * * * * * * * * * //

scale   1;

//for case 8:  alpha=45; beta=80; L=0.909; S=0.455; W=0.182 

x_1  -0.5 ;//-0.3;
x1   0.5;// 0.3;

y_1   -0.5;//-0.2;
y1     0.5;// 0.2;

z_1    -0.5;//-0.2;
z1   0.5;//0.2;


vertices
(
    ($x_1 $y_1 $z_1)
    ($x1  $y_1 $z_1)
    ($x1  $y1  $z_1)
    ($x_1 $y1  $z_1)

    ($x_1 $y_1 $z1)
    ($x1  $y_1 $z1)
    ($x1  $y1  $z1)
    ($x_1 $y1  $z1)
);

blocks
(
    hex (0 1 2 3 4 5 6 7) (20 20 20) simpleGrading (1 1 1)
);

edges
(
);

boundary
(
    sides
    {
        type overset;
        faces
        (
            (0 3 2 1)
            (2 6 5 1)
            (1 5 4 0)
            (3 7 6 2)
            (0 4 7 3)
            (4 5 6 7)
        );
    }
    floatingObject
    {
        type wall;
        faces ();
    }
);

// ************************************************************************* //
