/*--------------------------------*- C++ -*----------------------------------*\
| =========                 |                                                 |
| \\      /  F ield         | OpenFOAM: The Open Source CFD Toolbox           |
|  \\    /   O peration     | Version:  5.0                                   |
|   \\  /    A nd           | Web:      www.OpenFOAM.org                      |
|    \\/     M anipulation  |                                                 |
\*---------------------------------------------------------------------------*/
FoamFile
{
    version     2.0;
    format      ascii;
    class       volScalarField;
    location    "0";
    object      k;
}
// * * * * * * * * * * * * * * * * * * * * * * * * * * * * * * * * * * * * * //

dimensions      [0 2 -2 0 0 0 0];

internalField   uniform 0.09375;

boundaryField
{
    outlet
    {
        type            inletOutlet;
        inletValue      uniform 0.09375;
        value           uniform 0.09375;
    }
    inlet
    {
        type            fixedValue;
        value           uniform 0.09375;
    }
    sides
    {
        type            inletOutlet;
        inletValue      uniform 0.09375;
        value           uniform 0.09375;
    }
    propeller
    {
        type            kqRWallFunction;
        value           uniform 0.09375;
    }
}


// ************************************************************************* //
