/*--------------------------------*- C++ -*----------------------------------*\
  =========                 |
  \\      /  F ield         | OpenFOAM: The Open Source CFD Toolbox
   \\    /   O peration     | Website:  https://openfoam.org
    \\  /    A nd           | Version:  9
     \\/     M anipulation  |
\*---------------------------------------------------------------------------*/
FoamFile
{
    format      ascii;
    class       dictionary;
    location    "system";
    object      decomposeParDict;
}
// * * * * * * * * * * * * * * * * * * * * * * * * * * * * * * * * * * * * * //

numberOfSubdomains   4;

method               simple;//hierarchical;//

simpleCoeffs
{
    n                    (1 4 1);
    delta                0.001;
}

hierarchicalCoeffs
{
    n                    (1 4 1);
    delta                0.001;
    order                xyz;
}

manualCoeffs
{
    dataFile             "decompositionData";
}

// ************************************************************************* //
