/*--------------------------------*- C++ -*----------------------------------*\
  =========                 |
  \\      /  F ield         | OpenFOAM: The Open Source CFD Toolbox
   \\    /   O peration     | Website:  https://openfoam.org
    \\  /    A nd           | Version:  10
     \\/     M anipulation  |
\*---------------------------------------------------------------------------*/
FoamFile
{
    format      ascii;
    class       volScalarField;
    location    "0";
    object      omega;
}
// * * * * * * * * * * * * * * * * * * * * * * * * * * * * * * * * * * * * * //

dimensions      [0 0 -1 0 0 0 0];

internalField   uniform 0.12;

boundaryField
{
    wall
   {
     type            omegaWallFunction;
     value           uniform 0;   
   }   
   symmetry
   {
        type            symmetry;
   }
   pressure-outlet-7
   {
       type            inletOutlet;
       inletValue      uniform 0.003;
   }
   velocity-inlet-6
   {
     type            turbulentMixingLengthFrequencyInlet;
     mixingLength    0.017;       
     value           uniform 0.0054;                 
    }
    velocity-inlet-5
    {
     type            turbulentMixingLengthFrequencyInlet;
     mixingLength       0.071;       
     value           uniform 0.0012;
    }
}


// ************************************************************************* //
