/*--------------------------------*- C++ -*----------------------------------*\
| =========                 |                                                 |
| \\      /  F ield         | OpenFOAM: The Open Source CFD Toolbox           |
|  \\    /   O peration     | Version:  2.1.0                                 |
|   \\  /    A nd           | Web:      www.OpenFOAM.org                      |
|    \\/     M anipulation  |                                                 |
\*---------------------------------------------------------------------------*/
FoamFile
{
    version     2.0;
    format      ascii;
    class       volVectorField;
    object      U;
}
// * * * * * * * * * * * * * * * * * * * * * * * * * * * * * * * * * * * * * //

dimensions      [0 1 -1 0 0 0 0];

internalField   uniform (0.4 1.2 0);

boundaryField
{
    wall
    {
     type	noSlip;//fixedValue;
     //value	uniform (0 0 0);   
    }
    symmetry
    {
        type            symmetry;
    }
    pressure-outlet-7
    {
       type            inletOutlet;//fluxCorrectedVelocity; //
       value           uniform (0 0 0); //place holder
       inletValue      uniform (0 0 0);
    }
    velocity-inlet-6
    {
     type	fixedValue;
     value	uniform (0 1.2 0); //(Ux,Uy,Uz)
                    
    }
    velocity-inlet-5
    {
     type	fixedValue;
     value	uniform (0.4 0 0);
    }
}

// ************************************************************************* //
