/*--------------------------------*- C++ -*----------------------------------*\
| =========                 |                                                 |
| \\      /  F ield         | OpenFOAM: The Open Source CFD Toolbox           |
|  \\    /   O peration     | Version:  v1812                                 |
|   \\  /    A nd           | Web:      www.OpenFOAM.com                      |
|    \\/     M anipulation  |                                                 |
\*---------------------------------------------------------------------------*/
FoamFile
{
    version     2.0;
    format      ascii;
    class       dictionary;
    object      dynamicMeshDict;
}
// * * * * * * * * * * * * * * * * * * * * * * * * * * * * * * * * * * * * * //

motionSolverLibs    ("libsixDoFRigidBodyMotion.so");

dynamicFvMesh       dynamicOversetFvMesh;

solver          sixDoFRigidBodyMotion;

sixDoFRigidBodyMotionCoeffs
{

    patches         (floatingObject);
    innerDistance   100.0;
    outerDistance   101.0;

    centreOfMass    (0 0 0);

    // Cuboid dimensions
    Lx              0.4545;
    Ly              0.2275;
    Lz              0.091;

    // Density of the solid
    rhoSolid        2319;

    // Cuboid mass
    mass            #calc "$rhoSolid*$Lx*$Ly*$Lz";

    // Cuboid moment of inertia about the centre of mass
    momentOfInertia #codeStream
    {
        codeInclude
        #{
            #include "diagTensor.H"
        #};

        code
        #{
            scalar sqrLx = sqr($Lx);
            scalar sqrLy = sqr($Ly);
            scalar sqrLz = sqr($Lz);
            os  <<
                $mass
               *diagTensor(sqrLy + sqrLz, sqrLx + sqrLz, sqrLx + sqrLy)/12.0;
        #};
    };

    report          on;
    accelerationRelaxation 1.0;//0.6;
    accelerationDamping    1.0;//0.9;

    solver
    {
        type Newmark;
    }

    constraints
    {
     

        fixedLine
        {
            sixDoFRigidBodyMotionConstraint line;
            //centreOfRotation (0.5 0.45 0.1);
            direction (1 -1 0);
        }
        fixedAxis1
        {
            sixDoFRigidBodyMotionConstraint axis;
            axis (0 1 0);
        }
        fixedAxis2
        {
            sixDoFRigidBodyMotionConstraint axis;
            axis (0 0 1);
        }
        
    }
}


// ************************************************************************* //
