/*--------------------------------*- C++ -*----------------------------------*\
| =========                 |                                                 |
| \\      /  F ield         | OpenFOAM: The Open Source CFD Toolbox           |
|  \\    /   O peration     | Version:  2.1.0                                 |
|   \\  /    A nd           | Web:      www.OpenFOAM.org                      |
|    \\/     M anipulation  |                                                 |
\*---------------------------------------------------------------------------*/
FoamFile
{
    version     2.0;
    format      ascii;
    class       volScalarField;
    location    "0";
    object      alphat;
}
// * * * * * * * * * * * * * * * * * * * * * * * * * * * * * * * * * * * * * //

dimensions      [1 -1 -1 0 0 0 0];

internalField   uniform 0;

boundaryField
{
   wall
    {
     	type            compressible::alphatJayatillekeWallFunction;
        Prt             0.85;
        value           uniform 0;   
    }
   symmetry
    {
        type            symmetry;
    }
    pressure-outlet-7
    {
	type            calculated;
        value           uniform 0;
    }
    velocity-inlet-6
    {
      type            calculated;
      value           uniform 0;                   
    }

    velocity-inlet-5
    {
       type            calculated;
       value           uniform 0;
    }
}


// ************************************************************************* //
