/*--------------------------------*- C++ -*----------------------------------*\
| =========                 |                                                 |
| \\      /  F ield         | OpenFOAM: The Open Source CFD Toolbox           |
|  \\    /   O peration     | Version:  2.3.0                                 |
|   \\  /    A nd           | Web:      www.OpenFOAM.org                      |
|    \\/     M anipulation  |                                                 |
\*---------------------------------------------------------------------------*/
FoamFile
{
    version     2.0;
    format      ascii;
    class       volScalarField;
    object      omega;
}
// * * * * * * * * * * * * * * * * * * * * * * * * * * * * * * * * * * * * * //
dimensions      [0 0 -1 0 0 0 0];

internalField   uniform 0.158;

boundaryField
{
    inlet
    {
        type            fixedValue;
        value           $internalField;
    }

    outlet
    {
        type            inletOutlet;
        inletValue      $internalField;
        value           $internalField;
    }

    walls
    {
        type            omegaWallFunction;
        value           $internalField;
    }
    
    spillway
    {
        type            omegaWallFunction;
        value           $internalField;
    }
    
    atmosphere
    {
        type            inletOutlet;
        inletValue      $internalField;
        value           $internalField;
    }

     "(defaultFaces|front|back)"
    {
        type            empty;
    }
}


// ************************************************************************* //
