/*--------------------------------*- C++ -*----------------------------------*\
| =========                 |                                                 |
| \\      /  F ield         | OpenFOAM: The Open Source CFD Toolbox           |
|  \\    /   O peration     | Version:  5.0                                   |
|   \\  /    A nd           | Web:      www.OpenFOAM.org                      |
|    \\/     M anipulation  |                                                 |
\*---------------------------------------------------------------------------*/
FoamFile
{
    version     2.0;
    format      ascii;
    class       extendedFeatureEdgeMesh;
    location    "constant/extendedFeatureEdgeMesh";
    object      propeller.extendedFeatureEdgeMesh;
}
// * * * * * * * * * * * * * * * * * * * * * * * * * * * * * * * * * * * * * //

// points

2338
(
(0.0051794 -0.0283872 -0.0250425)
(-0.0108472 -0.0362905 0.00986984)
(-0.0108472 -0.0206012 -0.0314644)
(0.0112085 -0.0349503 0.0138299)
(-0.00535811 -0.00636081 0.037311)
(-0.0131599 0.0416263 -0.117855)
(-0.0120699 0.0442075 -0.116911)
(-0.00323415 0.0629674 -0.10797)
(-0.0131599 0.12495 0.00316982)
(-0.0120699 0.12485 0.00591627)
(-0.00323415 0.122144 0.026521)
(-0.0131599 -0.10295 0.0708792)
(-0.0120699 -0.104483 0.0685986)
(-0.0105803 -0.106368 0.0656389)
(-0.00323415 -0.114405 0.0503383)
(-0.0131599 -0.0992233 -0.0760081)
(-0.0120699 -0.0975282 -0.0781713)
(-0.00323415 -0.0832276 -0.0932502)
(-0.0131599 0.0355969 0.119814)
(-0.0120699 0.032954 0.120568)
(-0.00323415 0.0125215 0.124361)
(0.0447265 0.0770185 -0.0285644)
(0.0263317 0.041806 -0.0213813)
(-0.00195242 0.0651087 -0.106665)
(0.00145317 0.0715679 -0.101897)
(-1.96308e-05 0.0690198 -0.103931)
(0.00766422 0.080435 -0.0928263)
(0.0306396 0.0920503 -0.0570698)
(0.00413683 0.018499 -0.0357993)
(0.00285399 0.0298162 -0.0267494)
(0.0447265 0.0509664 0.064422)
(0.0263317 0.0332536 0.0331527)
(-0.00195242 0.121564 0.0289608)
(0.00145317 0.119026 0.0365771)
(-1.96308e-05 0.120173 0.0335251)
(0.00766422 0.113139 0.0478133)
(0.0306396 0.0827217 0.0699095)
(0.0447265 -0.079099 -0.0221612)
(0.0263317 -0.0463894 -0.00727512)
(-0.00195243 -0.11537 0.0480238)
(0.00145317 -0.117793 0.0403701)
(-1.96308e-05 -0.116927 0.0435135)
(0.00766422 -0.119635 0.0278195)
(0.0306396 -0.108015 -0.00793534)
(0.00413683 -0.0360083 0.0180888)
(-0.0149819 -0.100187 0.0743456)
(0.00285399 -0.0398447 0.00411524)
(0.0447265 -0.00336637 -0.0820758)
(0.0263317 -0.00741606 -0.0463671)
(-0.00195243 -0.0813247 -0.0948833)
(0.00145317 -0.0747944 -0.0995531)
(-1.96308e-05 -0.0775164 -0.0977583)
(0.00766422 -0.0634272 -0.105183)
(0.0306396 -0.0258315 -0.105181)
(-0.0149819 -0.101667 -0.0723098)
(0.00285399 -0.0162265 -0.0366229)
(0.0447265 -0.0455195 0.0683794)
(0.0263317 -0.0212542 0.0418708)
(-0.00195242 0.010022 0.124564)
(0.00145317 0.00199405 0.124503)
(-1.96308e-05 0.00525118 0.124651)
(0.00766422 -0.0105114 0.122377)
(0.0306396 -0.0409254 0.100276)
(-0.0149819 0.0397473 0.118258)
(0.00285399 -0.00839887 0.0391662)
(0.0106027 0.0195439 -0.0321484)
(0.00725252 0.0165139 -0.033985)
(-0.0108472 0.0235583 -0.0293159)
(-4.65363e-05 0.0284895 -0.0256757)
(0.00224766 0.0314466 0.0211785)
(-0.0194095 0.0367919 0.00289921)
(-4.65363e-05 -0.0381403 0.00402632)
(0.0067913 -0.0264415 -0.0277632)
(-4.65364e-05 -0.0156152 -0.0350294)
(-4.65389e-05 -0.00795673 0.0375177)
(0.00399814 0.00899902 0.0367994)
(-0.00791136 0.0495456 -0.114751)
(-0.00791136 0.124445 0.0116607)
(-0.00791136 -0.107532 0.0637132)
(-0.00791136 -0.093824 -0.0825806)
(-0.00791136 0.0273656 0.121958)
(-0.00289724 0.0117869 0.124432)
(-0.0130023 0.0420625 -0.1177)
(-0.0127966 0.0425888 -0.11751)
(-0.0126584 0.0429111 -0.117393)
(-0.0122003 0.0439235 -0.117018)
(-0.0114746 0.0455058 -0.116412)
(-0.0110215 0.046505 -0.116016)
(-0.00663621 0.0520962 -0.113615)
(-0.0039097 0.0615954 -0.10876)
(-0.00295524 0.0635014 -0.107656)
(-0.00289724 0.0636038 -0.107596)
(-0.00284002 0.0636999 -0.10754)
(-0.00280287 0.0637582 -0.107505)
(-0.00243356 0.0639742 -0.107377)
(-0.00251375 0.0640065 -0.107358)
(-0.002494 0.0640026 -0.10736)
(-0.0130023 0.124937 0.00363259)
(-0.0127966 0.12492 0.00419167)
(-0.0126584 0.124908 0.00453442)
(-0.0122003 0.124864 0.00561321)
(-0.0114746 0.124776 0.00730525)
(-0.0110215 0.124709 0.00837786)
(-0.00663621 0.124153 0.0144373)
(-0.0039097 0.122471 0.024972)
(-0.00295524 0.12201 0.0271257)
(-0.00284002 0.121961 0.0273507)
(-0.00280287 0.121946 0.0274166)
(-0.00243356 0.121891 0.0276618)
(-0.00251375 0.121882 0.0276984)
(-0.002494 0.121883 0.0276941)
(-0.0132589 -0.102708 0.0712287)
(-0.0130023 -0.103211 0.0704974)
(-0.0127966 -0.103526 0.0700348)
(-0.0126584 -0.103718 0.0697505)
(-0.0122003 -0.104316 0.068852)
(-0.0114746 -0.10524 0.0674317)
(-0.0110215 -0.105816 0.0665243)
(-0.00663621 -0.108928 0.0612955)
(-0.0039097 -0.113759 0.0517839)
(-0.00295524 -0.114653 0.0497707)
(-0.00284002 -0.114744 0.0495595)
(-0.00280287 -0.114772 0.0494976)
(-0.00243356 -0.114871 0.0492666)
(-0.00251375 -0.114886 0.0492321)
(-0.002494 -0.114884 0.0492362)
(-0.0130023 -0.0989411 -0.076375)
(-0.0127966 -0.0985983 -0.076817)
(-0.0126584 -0.0983872 -0.0770873)
(-0.0122003 -0.0977177 -0.0779343)
(-0.0114746 -0.0966524 -0.0792518)
(-0.0110215 -0.0959673 -0.08008)
(-0.00663621 -0.0919562 -0.0846555)
(-0.0039097 -0.0844029 -0.0921894)
(-0.00295524 -0.0827643 -0.0936611)
(-0.00284002 -0.0825919 -0.0938138)
(-0.00280287 -0.0825414 -0.0938586)
(-0.00243356 -0.0823524 -0.0940244)
(-0.00251375 -0.0823241 -0.0940491)
(-0.002494 -0.0823275 -0.0940462)
(-0.0130023 0.0351529 0.119945)
(-0.0127966 0.0346158 0.120101)
(-0.0126584 0.0342861 0.120195)
(-0.0122003 0.0332466 0.120487)
(-0.0114746 0.0316103 0.120927)
(-0.0110215 0.0305694 0.121194)
(-0.00663621 0.0246348 0.122538)
(-0.0039097 0.0140958 0.124194)
(-0.00295524 0.0119052 0.124421)
(-0.00284002 0.0116759 0.124443)
(-0.00280287 0.0116087 0.12445)
(-0.00243356 0.0113583 0.124473)
(-0.00251375 0.0113209 0.124476)
(-0.002494 0.0113254 0.124476)
(-0.0133952 0.0410219 -0.117875)
(0.0258444 0.0923589 -0.0642346)
(-0.0140542 0.0395476 -0.118303)
(-0.018682 0.0205487 -0.0903106)
(-0.00160413 0.0657459 -0.10625)
(0.00215478 0.0715221 -0.101791)
(0.000836097 0.0698619 -0.103266)
(0.00384953 0.0745273 -0.0991644)
(0.0325851 0.0916692 -0.0537198)
(0.00795406 0.0804036 -0.0928529)
(0.0105068 0.0831665 -0.0890781)
(0.0114454 0.084612 -0.087125)
(0.0183298 0.0896384 -0.0766529)
(0.016908 0.089234 -0.0783509)
(-0.0014872 0.0660443 -0.106052)
(0.00196179 0.0723631 -0.101147)
(0.006921 0.0795074 -0.0939538)
(-0.0149819 0.0373541 -0.119036)
(-0.019494 0.020264 -0.0950304)
(-0.0170279 0.0327011 -0.12002)
(-0.017866 0.0207277 -0.0850095)
(0.00555556 0.0775838 -0.0961761)
(0.0146062 0.025761 -0.0276432)
(0.0143245 0.0868571 -0.083036)
(-0.014957 0.0373458 -0.119038)
(-0.00804019 0.0493117 -0.114854)
(-0.0213924 0.0109902 -0.0353738)
(-0.020205 0.0126751 -0.0349517)
(-0.0213383 0.0107986 -0.0387681)
(0.00228873 0.0724158 -0.101164)
(0.00145265 0.0711835 -0.102221)
(0.00130917 0.0712813 -0.102142)
(0.00136863 0.0714134 -0.102029)
(-2.71671e-05 0.0689953 -0.103951)
(-0.0133952 0.124782 0.0025889)
(0.0258444 0.0896312 0.0679889)
(-0.0140542 0.124734 0.00105437)
(-0.018682 0.0922403 -0.00836452)
(-0.00160413 0.121366 0.0296951)
(0.00215478 0.11891 0.0365665)
(0.000836097 0.119801 0.0345316)
(0.00384953 0.117341 0.0402362)
(0.0325851 0.0794179 0.0705822)
(0.00795406 0.113154 0.0477753)
(0.0105068 0.110418 0.0515694)
(0.0114454 0.109007 0.0535477)
(0.0183298 0.100601 0.0615641)
(0.016908 0.102091 0.0606548)
(-0.0014872 0.12127 0.0300401)
(0.00196179 0.118558 0.0375651)
(0.006921 0.113925 0.0465827)
(-0.0149819 0.124753 -0.00125819)
(-0.019494 0.0966412 -0.0100938)
(-0.0170279 0.124251 -0.00598759)
(-0.017866 0.087254 -0.00655618)
(0.0125285 0.0364342 0.0131897)
(0.00555556 0.115444 0.0440665)
(0.0159284 0.0325319 0.018836)
(0.0146062 0.0342508 0.0159579)
(0.0143245 0.105812 0.0569465)
(-0.014957 0.124753 -0.00126688)
(-0.00804019 0.12447 0.0114065)
(-0.0213924 0.0370387 -0.000478786)
(-0.020205 0.0371578 0.00125409)
(-0.0213383 0.0402076 -0.00170988)
(0.00228873 0.11859 0.0376102)
(0.00145265 0.119215 0.0361115)
(0.00130917 0.11917 0.0362289)
(0.00136863 0.119103 0.0363895)
(-2.71671e-05 0.120184 0.033496)
(-0.0133952 -0.102472 0.0712505)
(0.0258444 -0.112476 -0.00232028)
(-0.0140542 -0.101531 0.0724635)
(-0.018682 -0.0697075 0.0609845)
(-0.00160412 -0.115641 0.0473133)
(0.00215479 -0.117694 0.0403108)
(0.00083611 -0.117218 0.0424803)
(0.00384954 -0.118581 0.0364196)
(0.0325851 -0.105738 -0.0104215)
(0.00795406 -0.119625 0.0278595)
(0.0105068 -0.119642 0.0231817)
(0.0114454 -0.119663 0.0207519)
(0.0183298 -0.117574 0.00932543)
(0.016908 -0.118245 0.0109367)
(-0.0014872 -0.115767 0.0469778)
(0.00196179 -0.117996 0.039296)
(0.006921 -0.119548 0.029277)
(-0.019494 -0.0722514 0.0649703)
(-0.0170279 -0.0970017 0.0778769)
(-0.017866 -0.0667364 0.0565907)
(0.00555556 -0.119297 0.0322055)
(0.0159284 -0.0373903 0.00388311)
(0.0146062 -0.0370893 0.00722188)
(0.0143245 -0.119076 0.0161242)
(-0.014957 -0.100182 0.0743526)
(-0.00804019 -0.107403 0.0639338)
(-0.0213924 -0.0296835 0.0221581)
(-0.020205 -0.0307985 0.0208263)
(-0.0213383 -0.0315236 0.0250168)
(0.00228874 -0.118048 0.0392783)
(0.00145265 -0.117673 0.040858)
(0.00130917 -0.117705 0.0407365)
(0.00136863 -0.117746 0.0405673)
(-2.71671e-05 -0.116919 0.0435433)
(-0.0133952 -0.0994289 -0.0754394)
(0.0258444 -0.0325503 -0.107688)
(-0.0140542 -0.100292 -0.0741696)
(-0.018682 -0.0795406 -0.0474505)
(-0.00160412 -0.0807328 -0.095361)
(0.0325851 -0.0227633 -0.103783)
(0.00215478 -0.0747072 -0.0994766)
(0.00384953 -0.0712808 -0.101523)
(0.000836097 -0.0766235 -0.0983536)
(0.00795406 -0.0634622 -0.105162)
(0.0105068 -0.0590184 -0.106623)
(0.0114454 -0.0567143 -0.107394)
(0.0183298 -0.0452015 -0.108938)
(0.016908 -0.0469413 -0.109078)
(-0.0014872 -0.0804524 -0.0955837)
(0.00196179 -0.0738354 -0.100078)
(0.006921 -0.0647862 -0.104649)
(-0.019494 -0.0841174 -0.0486382)
(-0.0170279 -0.104041 -0.0681888)
(-0.017866 -0.0744436 -0.0459826)
(0.00555556 -0.0674942 -0.103507)
(0.0146062 -0.0183297 -0.0330424)
(0.0143245 -0.0521316 -0.108265)
(-0.014957 -0.101672 -0.0723028)
(-0.00804019 -0.0939941 -0.0823899)
(-0.0213924 -0.0302463 -0.0213834)
(-0.020205 -0.0293242 -0.0228554)
(-0.0213383 -0.0335337 -0.0222501)
(0.00228873 -0.0738347 -0.100133)
(0.00145265 -0.0752211 -0.0992875)
(0.00136863 -0.0749672 -0.0994468)
(0.00130917 -0.0751157 -0.0993561)
(-2.71671e-05 -0.0775421 -0.097741)
(-0.0133952 0.0360975 0.119475)
(0.0258444 -0.0369637 0.106254)
(-0.0140542 0.037542 0.118955)
(-0.018682 0.036459 0.085141)
(-0.00160413 0.00926242 0.124602)
(0.00215478 0.0019685 0.12439)
(0.00384953 -0.00200647 0.124032)
(0.000836097 0.00417889 0.124608)
(0.0325851 -0.0425862 0.0973421)
(0.00795406 -0.0104703 0.12238)
(0.0105068 -0.0149243 0.12095)
(0.0183298 -0.0274635 0.114702)
(0.016908 -0.0261384 0.115838)
(-0.0014872 0.00890466 0.124618)
(0.00196179 0.000909956 0.124364)
(0.006921 -0.00909817 0.122744)
(-0.019494 0.0394636 0.0887921)
(-0.0170279 0.0440902 0.116319)
(-0.017866 0.0331983 0.0809575)
(0.00555556 -0.00623567 0.123411)
(0.0159284 -0.00786119 0.0367603)
(0.0146062 -0.00459282 0.0375057)
(0.0143245 -0.0214615 0.118231)
(-0.014957 0.0397555 0.118255)
(-0.00804019 0.0276152 0.121903)
(-0.0213924 0.0119009 0.0350779)
(-0.020205 0.0102897 0.0357267)
(-0.0213383 0.014051 0.0377113)
(0.00228873 0.000876981 0.124408)
(0.00145265 0.0024954 0.124539)
(0.00130917 0.00236978 0.124533)
(0.00136863 0.00219641 0.124519)
(-2.71671e-05 0.0052822 0.124652)
(0.0101167 0.0214643 -0.0320407)
(0.00829383 0.0201452 -0.0331435)
(0.00607278 0.0172987 -0.0340299)
(-0.00456432 0.0126461 -0.0365217)
(0.0145673 0.0256019 -0.0274559)
(0.00281693 0.0294545 -0.0242639)
(0.000783736 0.0288697 -0.0250264)
(-0.00998514 0.0225797 -0.0311844)
(-0.00747392 0.024297 -0.0303624)
(-0.00833139 0.0356137 0.0137451)
(0.014406 0.034323 0.014768)
(-0.018507 0.0367749 -0.00406553)
(0.0160495 0.0321773 0.0187258)
(0.0152209 0.033314 0.0168005)
(0.0109342 -0.0361217 0.0125767)
(0.00969117 -0.0358061 0.0138194)
(0.00607579 -0.0339982 0.0173607)
(0.00819846 -0.0350027 0.0154105)
(-0.0012605 -0.0322425 0.0210137)
(-0.0039451 -0.0323699 0.0218764)
(0.000827082 -0.0380675 0.00325547)
(0.00281693 -0.0380911 0.002317)
(-0.00998514 -0.0365971 0.0119567)
(-0.00744158 -0.0375125 0.0102588)
(0.0100827 -0.0238777 -0.0299957)
(0.00719447 -0.0263024 -0.0296711)
(0.00583388 -0.0269372 -0.0280778)
(0.000551004 -0.0293888 -0.0247554)
(0.0145673 -0.0182007 -0.0328332)
(0.000784742 -0.0148798 -0.0351905)
(0.00281693 -0.0139744 -0.0355108)
(-0.00998514 -0.0226806 -0.0311111)
(-0.00747208 -0.0213671 -0.0324912)
(0.13369 -7.65491e-09 0)
(0.000783784 -0.008646 0.037216)
(0.00281693 -0.00956721 0.0369428)
(-0.00481447 -0.00404329 0.0386274)
(-0.0160124 0.0146689 0.0343258)
(0.0152785 -0.00607698 0.0370981)
(-0.0190669 0.0150181 0.0338556)
(0.00509286 0.00707817 0.0374035)
(0.0158032 -0.00930801 0.036221)
(0.0159303 -0.00899743 0.0362863)
(0.0159303 -0.00899743 0.0362863)
(0.0159619 -0.00858483 0.0363754)
(-0.0221619 0.0146329 0.0336399)
(-0.00306799 0.0107283 0.0370252)
(-0.00298697 0.010832 0.0368453)
(-0.0223238 0.0145331 0.0336576)
(-0.000845876 0.00994708 0.0370792)
(-0.0147103 0.0146692 0.0343392)
(-0.0153007 0.0145436 0.034444)
(0.133639 -0.00039991 0.000757304)
(0.133639 0.000357029 -0.000778432)
(-0.0184136 0.0149943 0.0339405)
(-0.0200063 0.0149888 0.0337599)
(-0.0218589 0.0147412 0.033638)
(-0.0224359 0.0144193 0.0336896)
(-0.275 0.0223607 -5.46599e-17)
(-0.275 0.0223129 0.00146165)
(-0.275 0.0222102 -0.00258997)
(-0.275 0.0217755 -0.00508222)
(-0.275 0.0213097 -0.00677477)
(-0.275 0.0198898 -0.0102175)
(-0.275 0.0195272 -0.0108945)
(-0.275 0.0170469 -0.0144708)
(-0.275 0.0168734 -0.0146727)
(-0.275 0.00508222 0.0217755)
(-0.275 5.32907e-17 0.0223607)
(-0.275 0.0136844 -0.0176843)
(-0.275 0.0134736 -0.0178455)
(-0.275 0.0097845 -0.0201063)
(-0.275 0.00955097 -0.0202183)
(-0.275 0.00562025 -0.0216429)
(-0.275 0.00538008 -0.0217038)
(-0.275 0.00277164 -0.0221882)
(-0.275 0.0026534 -0.0222027)
(-0.275 5.32907e-17 -0.0223607)
(-0.275 -0.00508222 -0.0217755)
(-0.275 0.0102175 0.0198898)
(-0.275 -0.0102175 -0.0198898)
(-0.275 -0.0144708 -0.0170469)
(-0.275 0.0144708 0.0170469)
(-0.275 -0.0176843 -0.0136844)
(-0.275 -0.0201063 -0.0097845)
(-0.275 0.0176843 0.0136844)
(-0.275 -0.0216429 -0.00562025)
(-0.275 -0.0221882 -0.00277164)
(-0.275 -0.0223129 -0.00146165)
(-0.275 -0.0223607 -4.91831e-17)
(-0.275 0.0201063 0.0097845)
(-0.275 -0.0222102 0.00258997)
(-0.275 -0.0217755 0.00508222)
(-0.275 -0.0213097 0.00677477)
(-0.275 -0.0198898 0.0102175)
(-0.275 -0.0195272 0.0108945)
(-0.275 -0.0170469 0.0144708)
(-0.275 -0.0168734 0.0146727)
(-0.275 0.0216429 0.00562025)
(-0.275 -0.0136844 0.0176843)
(-0.275 -0.0134736 0.0178455)
(-0.275 -0.0097845 0.0201063)
(-0.275 -0.00955097 0.0202183)
(-0.275 -0.00562025 0.0216429)
(-0.275 -0.00538008 0.0217038)
(-0.275 -0.00277164 0.0221882)
(-0.275 -0.0026534 0.0222027)
(-0.275 0.0221882 0.00277164)
(-0.0132145 0.0414632 -0.117912)
(-0.0131348 0.041698 -0.117829)
(-0.0130879 0.0418295 -0.117783)
(-0.0129048 0.0423181 -0.117608)
(-0.0127021 0.0428114 -0.117429)
(-0.0124723 0.0433267 -0.11724)
(-0.0124387 0.0434011 -0.117213)
(-0.0119162 0.0445419 -0.116784)
(-0.0116896 0.0450355 -0.116595)
(-0.0114332 0.0455965 -0.116376)
(-0.0105803 0.0474717 -0.115624)
(-0.0105733 0.0474867 -0.115618)
(-0.0101182 0.0484632 -0.115212)
(-0.00969661 0.0493582 -0.114832)
(-0.00959641 0.0495708 -0.11474)
(-0.00900913 0.0508167 -0.114194)
(-0.00837287 0.0521674 -0.113583)
(-0.00647223 0.052439 -0.113458)
(-0.0081911 0.0525534 -0.113405)
(-0.00770642 0.0535824 -0.112923)
(-0.00722462 0.0546036 -0.112433)
(-0.00702522 0.0550257 -0.112227)
(-0.00634268 0.0564696 -0.111507)
(-0.00391104 0.0582444 -0.11059)
(-0.00567567 0.0578807 -0.110781)
(-0.00503988 0.0592252 -0.110068)
(-0.00342409 0.0594861 -0.109927)
(-0.00444659 0.0604751 -0.109387)
(-0.00442791 0.0605143 -0.109365)
(-0.0037027 0.0620216 -0.108517)
(-0.00348975 0.0624545 -0.108268)
(-0.00343316 0.0625689 -0.108202)
(-0.00315124 0.0631305 -0.107874)
(-0.0029519 0.0635074 -0.107653)
(-0.0132145 0.124954 0.00299693)
(-0.0131348 0.124948 0.00324588)
(-0.0130879 0.124944 0.00338535)
(-0.0129048 0.124929 0.00390403)
(-0.0127021 0.124912 0.00442838)
(-0.0124723 0.124891 0.00497687)
(-0.0124387 0.124888 0.00505615)
(-0.0119162 0.124832 0.00627359)
(-0.0116896 0.124805 0.00680164)
(-0.0114332 0.124771 0.00740255)
(-0.0105803 0.124635 0.00941838)
(-0.0105733 0.124634 0.00943456)
(-0.0101182 0.124549 0.0104887)
(-0.00969661 0.124464 0.0114575)
(-0.00959641 0.124443 0.0116879)
(-0.00900913 0.124308 0.0130417)
(-0.00837287 0.124145 0.0145151)
(-0.00647223 0.124109 0.0148121)
(-0.0081911 0.124094 0.0149372)
(-0.00770642 0.123954 0.0160649)
(-0.00722462 0.123803 0.0171875)
(-0.00702522 0.123738 0.0176526)
(-0.00634268 0.123499 0.0192483)
(-0.00391104 0.123176 0.0212195)
(-0.00567567 0.123245 0.0208147)
(-0.00503988 0.122983 0.0223136)
(-0.00342409 0.122929 0.0226054)
(-0.00444659 0.122721 0.0237129)
(-0.00442791 0.122712 0.0237568)
(-0.0037027 0.122372 0.0254523)
(-0.00348975 0.122269 0.0259411)
(-0.00343316 0.122241 0.0260703)
(-0.00315124 0.122103 0.0267057)
(-0.0029519 0.122009 0.0271326)
(-0.00289724 0.121985 0.0272418)
(-0.0132155 -0.10285 0.0710242)
(-0.0132145 -0.102852 0.0710216)
(-0.0131348 -0.102993 0.0708165)
(-0.0130879 -0.103072 0.0707015)
(-0.0129048 -0.103364 0.070273)
(-0.0127021 -0.103658 0.0698385)
(-0.0124723 -0.103964 0.0693826)
(-0.0124387 -0.104008 0.0693166)
(-0.0119162 -0.104679 0.0682992)
(-0.0116896 -0.104967 0.0678558)
(-0.0114332 -0.105293 0.0673496)
(-0.0105733 -0.106376 0.0656251)
(-0.0101182 -0.106928 0.0647228)
(-0.00969661 -0.107428 0.0638888)
(-0.00959641 -0.107546 0.0636898)
(-0.00900913 -0.108233 0.0625154)
(-0.00837287 -0.108967 0.0612274)
(-0.00647223 -0.109113 0.0609663)
(-0.0081911 -0.109174 0.0608564)
(-0.00770642 -0.109723 0.0598614)
(-0.00722462 -0.110261 0.0588646)
(-0.00702522 -0.110482 0.0584499)
(-0.00634268 -0.111227 0.0570188)
(-0.00391104 -0.112124 0.0552338)
(-0.00567567 -0.111942 0.055602)
(-0.00503988 -0.112611 0.0542354)
(-0.00342409 -0.112739 0.0539677)
(-0.00444659 -0.113221 0.0529493)
(-0.00442791 -0.11324 0.0529088)
(-0.0037027 -0.113961 0.051337)
(-0.00348975 -0.114165 0.0508808)
(-0.00343316 -0.114219 0.0507601)
(-0.00315124 -0.114481 0.0501651)
(-0.0029519 -0.114655 0.0497643)
(-0.00289724 -0.1147 0.0496617)
(-0.0132155 -0.0993303 -0.0758682)
(-0.0132145 -0.0993284 -0.0758707)
(-0.0131348 -0.099177 -0.0760685)
(-0.0130879 -0.0990921 -0.0761791)
(-0.0129048 -0.0987749 -0.0765898)
(-0.0127021 -0.0984526 -0.0770037)
(-0.0124723 -0.0981135 -0.0774354)
(-0.0124387 -0.0980643 -0.0774976)
(-0.0119162 -0.097304 -0.0784501)
(-0.0116896 -0.0969713 -0.0788611)
(-0.0114332 -0.0965905 -0.0793272)
(-0.0105803 -0.0952957 -0.0808781)
(-0.0105733 -0.0952852 -0.0808905)
(-0.0101182 -0.0945975 -0.0816938)
(-0.00969661 -0.0939589 -0.0824274)
(-0.00959641 -0.0938062 -0.0826012)
(-0.00900913 -0.0929016 -0.0836173)
(-0.00837287 -0.0919033 -0.0847133)
(-0.00647223 -0.0917001 -0.0849328)
(-0.0081911 -0.0916146 -0.0850254)
(-0.00770642 -0.0908379 -0.0858549)
(-0.00722462 -0.0900562 -0.0866746)
(-0.00702522 -0.0897299 -0.0870124)
(-0.00634268 -0.0885991 -0.0881632)
(-0.00391104 -0.0871786 -0.0895678)
(-0.00567567 -0.0874726 -0.0892809)
(-0.00503988 -0.0863795 -0.0903394)
(-0.00342409 -0.0861644 -0.0905439)
(-0.00444659 -0.0853451 -0.0913176)
(-0.00442791 -0.0853124 -0.0913481)
(-0.0037027 -0.0840404 -0.0925198)
(-0.00348975 -0.0836695 -0.0928545)
(-0.00343316 -0.0835713 -0.0929427)
(-0.00315124 -0.0830863 -0.0933757)
(-0.0132155 0.0357657 0.119764)
(-0.0132145 0.0357627 0.119764)
(-0.0131348 0.035524 0.119836)
(-0.0130879 0.0353902 0.119875)
(-0.0129048 0.0348922 0.120021)
(-0.0127021 0.0343881 0.120166)
(-0.0124723 0.0338601 0.120316)
(-0.0124387 0.0337837 0.120338)
(-0.0119162 0.0326088 0.120661)
(-0.0116896 0.0320981 0.120798)
(-0.0114332 0.031516 0.120952)
(-0.0105803 0.0295569 0.121445)
(-0.0105733 0.0295411 0.121449)
(-0.0101182 0.0285125 0.121695)
(-0.00969661 0.0275647 0.121913)
(-0.00959641 0.027339 0.121964)
(-0.00900913 0.0260099 0.122254)
(-0.00837287 0.0245581 0.122554)
(-0.00647223 0.0242647 0.122612)
(-0.0081911 0.0241411 0.122637)
(-0.00770642 0.0230252 0.122851)
(-0.00722462 0.0219109 0.123055)
(-0.00702522 0.0214484 0.123136)
(-0.00634268 0.0198571 0.123403)
(-0.00391104 0.0178824 0.123704)
(-0.00567567 0.0182888 0.123645)
(-0.00503988 0.0167823 0.123859)
(-0.00342409 0.0164881 0.123898)
(-0.00444659 0.0153705 0.124042)
(-0.00442791 0.0153261 0.124048)
(-0.0037027 0.0136084 0.124248)
(-0.00348975 0.0131116 0.124301)
(-0.00343316 0.0129802 0.124314)
(-0.00315124 0.0123334 0.12438)
(0.045557 0.0748135 -0.0278453)
(0.0454934 0.0728679 -0.0267286)
(-0.013542 0.0407079 -0.117975)
(0.0344199 0.0907415 -0.0504481)
(0.0364408 0.0897111 -0.0470802)
(0.0224344 0.091745 -0.0695142)
(0.0238908 0.0920843 -0.0672271)
(-0.0241174 0.01706 -0.118489)
(-0.0242506 0.0167685 -0.118193)
(-0.0241197 0.0170628 -0.118488)
(-0.0242529 0.0167713 -0.118193)
(-0.0243414 0.016574 -0.117951)
(-0.0243391 0.0165711 -0.117952)
(-0.0244372 0.0163547 -0.117618)
(-0.0244348 0.0163518 -0.117619)
(-0.0180697 0.0163829 -0.0533775)
(-0.0185414 0.0152994 -0.0506175)
(-0.0217313 0.0188697 -0.104561)
(-0.0237662 0.0167405 -0.111248)
(-0.0244746 0.0162658 -0.117453)
(-0.0244723 0.0162629 -0.117453)
(0.0400926 0.0870339 -0.0406576)
(0.0413834 0.0856698 -0.0381673)
(-0.0245501 0.0160644 -0.116965)
(-0.0245524 0.0160673 -0.116965)
(0.0425223 0.0840987 -0.0357546)
(0.0434678 0.0822969 -0.0334491)
(-0.0245745 0.0159916 -0.116707)
(-0.0245769 0.0159945 -0.116707)
(0.0442509 0.079963 -0.0310162)
(0.0442246 0.0813575 -0.0322057)
(-0.0245944 0.0159058 -0.116244)
(-0.0245968 0.0159088 -0.116243)
(0.0452024 0.0754678 -0.0273714)
(0.0451894 0.0742901 -0.0266406)
(-0.0245937 0.0158777 -0.115965)
(-0.0245961 0.0158807 -0.115965)
(0.0283515 0.0406058 -0.0233178)
(0.0334019 0.0468047 -0.0224153)
(-0.021361 0.0191819 -0.103248)
(0.0377925 0.0892087 -0.0451864)
(0.0397895 0.0877388 -0.0417278)
(-0.0190989 0.0141282 -0.0479624)
(-0.024574 0.0158666 -0.115456)
(-0.0245716 0.0158635 -0.115456)
(-0.0245478 0.0158742 -0.115158)
(-0.0245502 0.0158773 -0.115158)
(0.0397261 0.0590219 -0.021602)
(0.0409198 0.0613705 -0.0219896)
(-0.0244431 0.0159661 -0.114306)
(-0.0244456 0.0159693 -0.114306)
(-0.0243916 0.0160201 -0.113985)
(0.0338133 0.0505998 -0.0211078)
(0.0367471 0.0539755 -0.0211141)
(-0.0243941 0.0160233 -0.113985)
(-0.00191937 0.0651084 -0.106665)
(-0.00243853 0.0639788 -0.107374)
(-0.0178693 0.0207717 -0.0849987)
(0.0311452 0.0463454 -0.0211345)
(0.0237692 0.0384302 -0.0217377)
(-0.0241694 0.0162771 -0.112845)
(-0.0241668 0.0162738 -0.112846)
(0.0235735 0.0395284 -0.0216329)
(0.0202028 0.0361581 -0.0218553)
(-0.0168844 0.0210525 -0.0774572)
(-0.0167515 0.0210573 -0.0760521)
(-0.0165181 0.020906 -0.0720273)
(-0.0167025 0.019995 -0.0655851)
(-0.0171876 0.0188252 -0.0607075)
(-0.01731 0.0185396 -0.0596869)
(-0.00145414 0.0660449 -0.106051)
(-0.0181727 0.0164854 -0.0533459)
(-0.0186481 0.015411 -0.0505835)
(-0.0237688 0.0167438 -0.111247)
(0.00243534 0.0703864 -0.102162)
(-0.00211237 0.0614803 -0.108526)
(-0.0205963 0.0113543 -0.0424659)
(0.00946786 0.0820161 -0.0906874)
(0.00921263 0.0817246 -0.0910799)
(0.00972352 0.0823045 -0.0902932)
(0.00998988 0.0826013 -0.0898812)
(0.0102567 0.0828947 -0.0894673)
(-0.0206493 0.0112575 -0.0422768)
(0.0111532 0.0837189 -0.0881674)
(0.0125287 0.0856904 -0.0853971)
(0.0450433 0.0792815 -0.0311383)
(0.0443156 0.0813518 -0.0322201)
(-0.00225158 0.0644926 -0.107056)
(-0.0225087 0.0205334 -0.120133)
(-0.0229328 0.0196221 -0.119865)
(-0.0132589 0.0412255 -0.117996)
(-0.0136297 0.0403929 -0.118234)
(-0.0136806 0.0402776 -0.118266)
(0.0174321 0.0889601 -0.0782027)
(0.0162734 0.0888079 -0.0793708)
(0.0184925 0.0897263 -0.0763952)
(0.0186181 0.0897929 -0.0761965)
(0.0453001 0.0754583 -0.0273973)
(0.0452883 0.0742798 -0.0266689)
(0.0187438 0.0898585 -0.0759975)
(0.0189075 0.0899422 -0.0757387)
(0.0190715 0.0900243 -0.0754796)
(0.0191493 0.0900627 -0.0753566)
(0.0192273 0.0901006 -0.0752335)
(-0.00163718 0.0657456 -0.10625)
(0.0194457 0.0902048 -0.0748888)
(0.0196647 0.0903061 -0.0745434)
(0.03258 0.0916699 -0.0537186)
(0.0337123 0.0912894 -0.0519088)
(0.0197745 0.0903557 -0.0743703)
(0.0337173 0.0912886 -0.0519101)
(-0.0139649 0.0396341 -0.118445)
(0.00473118 0.0765432 -0.0971779)
(-0.0139695 0.0396454 -0.118441)
(-0.0142558 0.0389974 -0.118616)
(-0.020082 0.0200138 -0.0979768)
(-0.0233387 0.0187555 -0.119531)
(-0.023679 0.01803 -0.119163)
(-0.0217344 0.0188735 -0.10456)
(0.0107092 0.0839102 -0.0880996)
(0.0276459 0.0922242 -0.0618945)
(0.0138841 0.0869636 -0.0830233)
(0.0128104 0.0860041 -0.0847502)
(-0.0142514 0.0389856 -0.118619)
(0.0117621 0.0849933 -0.0864278)
(-0.0145451 0.0383426 -0.118787)
(0.0162319 0.0887937 -0.0793867)
(0.0157477 0.0884477 -0.0801665)
(0.0196316 0.0907317 -0.073948)
(0.0191998 0.0905308 -0.074635)
(0.0180235 0.089919 -0.0765119)
(0.0171689 0.0894125 -0.0778808)
(0.016866 0.0892198 -0.078367)
(-0.0213641 0.0191859 -0.103247)
(0.0184551 0.0901547 -0.0758223)
(0.0152272 0.087932 -0.0808436)
(0.0156395 0.0882337 -0.08018)
(0.0174457 0.0895461 -0.0772894)
(-0.0145409 0.0383304 -0.118791)
(-0.0148427 0.0376689 -0.118958)
(-0.0148388 0.0376563 -0.118962)
(0.0246042 0.0920905 -0.0659503)
(0.0229304 0.0917757 -0.0685784)
(-0.0170325 0.0327189 -0.120015)
(-0.0177486 0.0311038 -0.120272)
(-0.0176329 0.0314473 -0.120116)
(-0.014978 0.0373412 -0.119039)
(0.0306122 0.0919396 -0.0565638)
(0.0272472 0.0922702 -0.0618261)
(0.000938946 0.0705301 -0.102761)
(0.0446037 0.0745732 -0.027014)
(0.0446044 0.0729157 -0.025966)
(-0.0200856 0.0200182 -0.0979759)
(0.00192711 0.0721421 -0.101423)
(-0.0194978 0.0202686 -0.0950294)
(0.0151647 0.0879901 -0.0811568)
(0.0157889 0.0884619 -0.0801509)
(0.00189358 0.0721366 -0.101428)
(0.00552083 0.0775743 -0.0961842)
(0.0211897 0.091275 -0.0713263)
(-0.01362 0.0403911 -0.118235)
(-0.0136709 0.0402758 -0.118267)
(-0.0139552 0.0396324 -0.118445)
(-0.0142416 0.038984 -0.11862)
(-0.0145311 0.0383289 -0.118791)
(-0.0145202 0.0383342 -0.11879)
(-0.014231 0.038989 -0.118618)
(-0.0148289 0.0376549 -0.118962)
(-0.0149681 0.0373399 -0.11904)
(-0.0148178 0.0376606 -0.11896)
(-0.0129699 0.0415252 -0.11789)
(-0.017007 0.0327109 -0.120018)
(-0.0200695 0.0258305 -0.120701)
(-0.0208802 0.024029 -0.120655)
(-0.0178709 0.0207333 -0.0850081)
(-0.0168768 0.021006 -0.0774699)
(0.0215932 0.0400566 -0.0226024)
(0.00746699 0.0308183 -0.0241947)
(-0.0165403 0.0205035 -0.0684719)
(0.0104118 0.083519 -0.0887586)
(-0.016743 0.0210103 -0.0760652)
(-0.0168827 0.0210126 -0.0774681)
(-0.0192089 0.0142492 -0.0479265)
(-0.00901811 0.0474946 -0.115611)
(-0.016749 0.0210172 -0.0760633)
(-0.020712 0.0114966 -0.0424275)
(-0.0207651 0.0114006 -0.0422384)
(-0.0207404 0.0113408 -0.0422545)
(-0.0223123 0.00829064 -0.0359412)
(-0.0129684 0.039901 -0.118199)
(-0.0178475 0.0304068 -0.120291)
(-0.0233396 0.0187254 -0.119535)
(-0.0229333 0.0195929 -0.11987)
(-0.0165135 0.0208648 -0.0720393)
(-0.0165337 0.0204612 -0.0684846)
(0.00239719 0.0725543 -0.101039)
(-0.0166941 0.0199516 -0.0655983)
(-0.0236803 0.0179991 -0.119168)
(-0.0240016 0.0173106 -0.118703)
(0.0146472 0.0875961 -0.0819408)
(0.015124 0.087976 -0.081172)
(-0.0164588 0.0204399 -0.068491)
(-0.0166169 0.0199252 -0.0656063)
(0.000309924 0.068958 -0.103966)
(-0.00229758 0.0637883 -0.107487)
(0.0172111 0.0894267 -0.0778645)
(0.000166468 0.0688301 -0.10407)
(0.00159975 0.0712826 -0.102128)
(0.00703117 0.0795348 -0.0939684)
(0.0180663 0.0899332 -0.0764953)
(0.0184982 0.0901689 -0.0758055)
(0.00131902 0.0713161 -0.102111)
(0.00143431 0.0715331 -0.101927)
(0.0192434 0.0905449 -0.074618)
(0.00699576 0.0795241 -0.0939777)
(0.0103745 0.0835062 -0.0887707)
(0.00137432 0.0708522 -0.102022)
(-0.0200964 0.0258385 -0.120699)
(-0.0107871 0.0470116 -0.11581)
(0.0196755 0.0907457 -0.0739309)
(-0.0110329 0.0464977 -0.116023)
(-0.0209076 0.0240371 -0.120654)
(0.0220058 0.0916213 -0.0701895)
(0.0208238 0.0912228 -0.0720567)
(0.0203928 0.0910558 -0.0727396)
(0.0257959 0.0923467 -0.0642521)
(0.032531 0.0916603 -0.0537351)
(-0.0229355 0.0195955 -0.11987)
(-0.022511 0.0205076 -0.120137)
(-0.0233418 0.018728 -0.119535)
(-0.0236825 0.0180017 -0.119167)
(-0.0240039 0.0173133 -0.118702)
(0.045557 0.0496011 0.0625472)
(0.0454934 0.0479379 0.0610419)
(-0.013542 0.12478 0.00225917)
(0.0344199 0.0760197 0.070711)
(0.0364408 0.0724982 0.0707717)
(0.0224344 0.0944627 0.0657736)
(0.0238908 0.0923924 0.0668031)
(-0.0241174 0.117962 -0.02039)
(-0.0242506 0.11759 -0.020576)
(-0.0242529 0.117591 -0.0205732)
(-0.0241197 0.117962 -0.0203873)
(-0.0243414 0.1173 -0.0206861)
(-0.0243391 0.117299 -0.020689)
(-0.0244372 0.116916 -0.0207918)
(-0.0244348 0.116915 -0.0207947)
(-0.0180697 0.0558276 -0.000913509)
(-0.0185414 0.0528679 -0.00109106)
(-0.0217313 0.105274 -0.0143649)
(-0.0237662 0.110976 -0.0184562)
(-0.0244746 0.116731 -0.0208253)
(-0.0244723 0.11673 -0.0208282)
(0.0400926 0.0655626 0.0702102)
(0.0413834 0.0627727 0.0696824)
(-0.0245501 0.116205 -0.0208662)
(-0.0245524 0.116205 -0.0208633)
(0.0425223 0.0599926 0.0689339)
(0.0434678 0.0572431 0.0679327)
(-0.0245745 0.115937 -0.0208556)
(-0.0245769 0.115937 -0.0208527)
(0.0442509 0.0542081 0.0664648)
(0.0442246 0.0557703 0.0674235)
(-0.0245944 0.11547 -0.020794)
(-0.0245968 0.11547 -0.020791)
(0.0452024 0.0493526 0.0633159)
(0.0451894 0.0482936 0.0624217)
(-0.0245937 0.115196 -0.0207346)
(-0.0245961 0.115196 -0.0207316)
(0.0334019 0.0357817 0.0375872)
(0.0283515 0.0347244 0.0314128)
(-0.021361 0.104122 -0.0136622)
(0.0377925 0.0705419 0.0708791)
(0.0397895 0.0667983 0.0705499)
(-0.024574 0.114708 -0.0205877)
(-0.0245716 0.114707 -0.0205908)
(-0.0190989 0.0499808 -0.00138444)
(-0.0245478 0.114427 -0.0204885)