/*--------------------------------*- C++ -*----------------------------------*\
  =========                 |
  \\      /  F ield         | OpenFOAM: The Open Source CFD Toolbox
   \\    /   O peration     | Website:  https://openfoam.org
    \\  /    A nd           | Version:  6
     \\/     M anipulation  |
\*---------------------------------------------------------------------------*/
FoamFile
{
    version     2.0;
    format      ascii;
    class       dictionary;
    object      extrudeMeshDict;
}
// * * * * * * * * * * * * * * * * * * * * * * * * * * * * * * * * * * * * * //

constructFrom    mesh;
/*
patch:   patch of sourceCase
mesh:    patch of sourceCase, retaining original mesh
surface: surface geometry file
*/

sourceCase       "$FOAM_CASE";   // uses current case; can be a separate case
sourcePatches    (inlet);
// surface       "geometry.obj"; // constructFrom surface

// constructFrom patch: name of exposed "original" patch
exposedPatchName outlet;//back;

flipNormals      false;

extrudeModel     linearNormal;
/*
linearNormal:    linear extrusion in point-normal direction
sector:          sector extrusion about specified axis
*/


nLayers          100;
expansionRatio   1.0;

// Merge front and back patches, typically for 360 deg wedge extrusion
mergeFaces       false;
mergeTol         0;

linearNormalCoeffs
{
    thickness    0.5;
}



// * * * * * * * * * * * * * * * * * * * * * * * * * * * * * * * * * * * * * //
