/*--------------------------------*- C++ -*----------------------------------*\
  =========                 |
  \\      /  F ield         | OpenFOAM: The Open Source CFD Toolbox
   \\    /   O peration     | Website:  https://openfoam.org
    \\  /    A nd           | Version:  7
     \\/     M anipulation  |
\*---------------------------------------------------------------------------*/
FoamFile
{
    version     2.0;
    format      ascii;
    class       featureEdgeMesh;
    location    "constant/triSurface";
    object      MicrochannelSolidVolume.eMesh;
}
// * * * * * * * * * * * * * * * * * * * * * * * * * * * * * * * * * * * * * //


// points:

4890
(
(-0.0343 -0.0071 0.004)
(-0.0343 -0.0071 -0.004)
(0.0343 -0.0071 0.004)
(0.0343 -0.0071 -0.004)
(0.0343 -0.0021 -0.004)
(0.0343 -0.0021 0.004)
(-0.0343 -0.0021 -0.004)
(-0.0343 -0.0021 0.004)
(0.0045 -0.0071 -0.00155)
(0.004564907 -0.0071 -0.00154864)
(0.004629701 -0.0071 -0.001544564)
(0.004694267 -0.0071 -0.001537778)
(0.004758492 -0.0071 -0.001528294)
(0.004822263 -0.0071 -0.001516129)
(0.004885469 -0.0071 -0.001501304)
(0.004947999 -0.0071 -0.001483845)
(0.005009743 -0.0071 -0.001463783)
(0.005070593 -0.0071 -0.001441154)
(0.005130442 -0.0071 -0.001415995)
(0.005189185 -0.0071 -0.001388353)
(0.005246718 -0.0071 -0.001358275)
(0.005302942 -0.0071 -0.001325815)
(0.005357757 -0.0071 -0.001291028)
(0.005411067 -0.0071 -0.001253976)
(0.005462779 -0.0071 -0.001214725)
(0.005512802 -0.0071 -0.001173342)
(0.005561048 -0.0071 -0.001129901)
(0.005607433 -0.0071 -0.001084478)
(0.005651874 -0.0071 -0.001037152)
(0.005694296 -0.0071 -0.0009880072)
(0.005734621 -0.0071 -0.0009371286)
(0.005772781 -0.0071 -0.000884606)
(0.005808708 -0.0071 -0.0008305315)
(0.005842339 -0.0071 -0.000775)
(0.005873616 -0.0071 -0.0007181089)
(0.005902482 -0.0071 -0.0006599579)
(0.005928888 -0.0071 -0.0006006492)
(0.005952787 -0.0071 -0.0005402867)
(0.005974138 -0.0071 -0.0004789763)
(0.005992902 -0.0071 -0.0004168257)
(0.006009047 -0.0071 -0.0003539438)
(0.006022545 -0.0071 -0.000290441)
(0.006033372 -0.0071 -0.0002264287)
(0.006041509 -0.0071 -0.0001620191)
(0.006046941 -0.0071 -9.732531e-05)
(0.00604966 -0.0071 -3.246075e-05)
(0.00604966 -0.0071 3.246075e-05)
(0.006046941 -0.0071 9.732531e-05)
(0.006041509 -0.0071 0.0001620191)
(0.006033372 -0.0071 0.0002264287)
(0.006022545 -0.0071 0.000290441)
(0.006009047 -0.0071 0.0003539438)
(0.005992902 -0.0071 0.0004168257)
(0.005974138 -0.0071 0.0004789763)
(0.005952787 -0.0071 0.0005402867)
(0.005928888 -0.0071 0.0006006492)
(0.005902482 -0.0071 0.0006599579)
(0.005873616 -0.0071 0.0007181089)
(0.005842339 -0.0071 0.000775)
(0.005808708 -0.0071 0.0008305315)
(0.005772781 -0.0071 0.000884606)
(0.005734621 -0.0071 0.0009371286)
(0.005694296 -0.0071 0.0009880072)
(0.005651874 -0.0071 0.001037152)
(0.005607433 -0.0071 0.001084478)
(0.005561048 -0.0071 0.001129901)
(0.005512802 -0.0071 0.001173342)
(0.005462779 -0.0071 0.001214725)
(0.005411067 -0.0071 0.001253976)
(0.005357757 -0.0071 0.001291028)
(0.005302942 -0.0071 0.001325815)
(0.005246718 -0.0071 0.001358275)
(0.005189185 -0.0071 0.001388353)
(0.005130442 -0.0071 0.001415995)
(0.005070593 -0.0071 0.001441154)
(0.005009743 -0.0071 0.001463783)
(0.004947999 -0.0071 0.001483845)
(0.004885469 -0.0071 0.001501304)
(0.004822263 -0.0071 0.001516129)
(0.004758492 -0.0071 0.001528294)
(0.004694267 -0.0071 0.001537778)
(0.004629701 -0.0071 0.001544564)
(0.004564907 -0.0071 0.00154864)
(0.0045 -0.0071 0.00155)
(0.004435093 -0.0071 0.00154864)
(0.004370299 -0.0071 0.001544564)
(0.004305733 -0.0071 0.001537778)
(0.004241508 -0.0071 0.001528294)
(0.004177737 -0.0071 0.001516129)
(0.004114531 -0.0071 0.001501304)
(0.004052001 -0.0071 0.001483845)
(0.003990257 -0.0071 0.001463783)
(0.003929407 -0.0071 0.001441154)
(0.003869558 -0.0071 0.001415995)
(0.003810815 -0.0071 0.001388353)
(0.003753282 -0.0071 0.001358275)
(0.003697058 -0.0071 0.001325815)
(0.003642243 -0.0071 0.001291028)
(0.003588933 -0.0071 0.001253976)
(0.003537221 -0.0071 0.001214725)
(0.003487198 -0.0071 0.001173342)
(0.003438952 -0.0071 0.001129901)
(0.003392567 -0.0071 0.001084478)
(0.003348126 -0.0071 0.001037152)
(0.003305704 -0.0071 0.0009880072)
(0.003265379 -0.0071 0.0009371286)
(0.003227219 -0.0071 0.000884606)
(0.003191292 -0.0071 0.0008305315)
(0.003157661 -0.0071 0.000775)
(0.003126384 -0.0071 0.0007181089)
(0.003097518 -0.0071 0.0006599579)
(0.003071112 -0.0071 0.0006006492)
(0.003047213 -0.0071 0.0005402867)
(0.003025862 -0.0071 0.0004789763)
(0.003007098 -0.0071 0.0004168257)
(0.002990953 -0.0071 0.0003539438)
(0.002977455 -0.0071 0.000290441)
(0.002966628 -0.0071 0.0002264287)
(0.002958491 -0.0071 0.0001620191)
(0.002953059 -0.0071 9.732531e-05)
(0.00295034 -0.0071 3.246075e-05)
(0.00295034 -0.0071 -3.246075e-05)
(0.002953059 -0.0071 -9.732531e-05)
(0.002958491 -0.0071 -0.0001620191)
(0.002966628 -0.0071 -0.0002264287)
(0.002977455 -0.0071 -0.000290441)
(0.002990953 -0.0071 -0.0003539438)
(0.003007098 -0.0071 -0.0004168257)
(0.003025862 -0.0071 -0.0004789763)
(0.003047213 -0.0071 -0.0005402867)
(0.003071112 -0.0071 -0.0006006492)
(0.003097518 -0.0071 -0.0006599579)
(0.003126384 -0.0071 -0.0007181089)
(0.003157661 -0.0071 -0.000775)
(0.003191292 -0.0071 -0.0008305315)
(0.003227219 -0.0071 -0.000884606)
(0.003265379 -0.0071 -0.0009371286)
(0.003305704 -0.0071 -0.0009880072)
(0.003348126 -0.0071 -0.001037152)
(0.003392567 -0.0071 -0.001084478)
(0.003438952 -0.0071 -0.001129901)
(0.003487198 -0.0071 -0.001173342)
(0.003537221 -0.0071 -0.001214725)
(0.003588933 -0.0071 -0.001253976)
(0.003642243 -0.0071 -0.001291028)
(0.003697058 -0.0071 -0.001325815)
(0.003753282 -0.0071 -0.001358275)
(0.003810815 -0.0071 -0.001388353)
(0.003869558 -0.0071 -0.001415995)
(0.003929407 -0.0071 -0.001441154)
(0.003990257 -0.0071 -0.001463783)
(0.004052001 -0.0071 -0.001483845)
(0.004114531 -0.0071 -0.001501304)
(0.004177737 -0.0071 -0.001516129)
(0.004241508 -0.0071 -0.001528294)
(0.004305733 -0.0071 -0.001537778)
(0.004370299 -0.0071 -0.001544564)
(0.004435093 -0.0071 -0.00154864)
(-0.03283293 -0.0071 0.001037908)
(-0.03278791 -0.0071 0.001082934)
(-0.03287601 -0.0071 0.0009910121)
(-0.03274101 -0.0071 0.001126008)
(-0.03291705 -0.0071 0.00094233)
(-0.03269233 -0.0071 0.001167054)
(-0.032956 -0.0071 0.0008919498)
(-0.03264195 -0.0071 0.001205996)
(-0.03258996 -0.0071 0.001242764)
(-0.03299276 -0.0071 0.0008399622)
(-0.03302729 -0.0071 0.0007864609)
(-0.03253646 -0.0071 0.001277294)
(-0.03305952 -0.0071 0.0007315424)
(-0.03248154 -0.0071 0.001309521)
(-0.03308939 -0.0071 0.0006753056)
(-0.03242531 -0.0071 0.001339389)
(-0.03236785 -0.0071 0.001366843)
(-0.03311684 -0.0071 0.0006178519)
(-0.03314183 -0.0071 0.0005592847)
(-0.03230928 -0.0071 0.001391834)
(-0.03316432 -0.0071 0.0004997097)
(-0.03224971 -0.0071 0.001414316)
(-0.03318425 -0.0071 0.0004392342)
(-0.03218923 -0.0071 0.00143425)
(-0.0332016 -0.0071 0.0003779671)
(-0.03212797 -0.0071 0.001451599)
(-0.03321633 -0.0071 0.0003160189)
(-0.03206602 -0.0071 0.001466333)
(-0.03322842 -0.0071 0.0002535012)
(-0.0320035 -0.0071 0.001478424)
(-0.03323785 -0.0071 0.0001905267)
(-0.03194053 -0.0071 0.001487851)
(-0.0332446 -0.0071 0.0001272089)
(-0.03187721 -0.0071 0.001494596)
(-0.03324865 -0.0071 6.36618e-05)
(-0.03181366 -0.0071 0.001498648)
(-0.03325 -0.0071 2.185809e-18)
(-0.03175 -0.0071 0.0015)
(-0.03168634 -0.0071 0.001498648)
(-0.03162279 -0.0071 0.001494596)
(-0.03155947 -0.0071 0.001487851)
(-0.0314965 -0.0071 0.001478424)
(-0.03143398 -0.0071 0.001466333)
(-0.03137203 -0.0071 0.001451599)
(-0.03131077 -0.0071 0.00143425)
(-0.03125029 -0.0071 0.001414316)
(-0.03119072 -0.0071 0.001391834)
(-0.03113215 -0.0071 0.001366843)
(0.001061048 -0.0071 0.001129901)
(0.001107433 -0.0071 0.001084478)
(-0.03107469 -0.0071 0.001339389)
(0.001151874 -0.0071 0.001037152)
(0.001012802 -0.0071 0.001173342)
(0.001194296 -0.0071 0.0009880072)
(0.0009627791 -0.0071 0.001214725)
(0.001234621 -0.0071 0.0009371286)
(0.0009110671 -0.0071 0.001253976)
(0.001272781 -0.0071 0.000884606)
(0.0008577569 -0.0071 0.001291028)
(0.001308708 -0.0071 0.0008305315)
(0.0008029419 -0.0071 0.001325815)
(0.001342339 -0.0071 0.000775)
(0.0007467182 -0.0071 0.001358275)
(0.001373616 -0.0071 0.0007181089)
(0.0006891845 -0.0071 0.001388353)
(0.001402482 -0.0071 0.0006599579)
(0.0006304418 -0.0071 0.001415995)
(0.001428888 -0.0071 0.0006006492)
(0.0005705931 -0.0071 0.001441154)
(0.001452787 -0.0071 0.0005402867)
(0.0005097433 -0.0071 0.001463783)
(0.001474138 -0.0071 0.0004789763)
(0.0004479993 -0.0071 0.001483845)
(0.001492902 -0.0071 0.0004168257)
(0.0003854693 -0.0071 0.001501304)
(0.001509047 -0.0071 0.0003539438)
(0.0003222631 -0.0071 0.001516129)
(0.001522545 -0.0071 0.000290441)
(0.0002584916 -0.0071 0.001528294)
(0.001533372 -0.0071 0.0002264287)
(0.0001942665 -0.0071 0.001537778)
(0.001541509 -0.0071 0.0001620191)
(0.0001297007 -0.0071 0.001544564)
(0.001546941 -0.0071 9.732531e-05)
(6.490726e-05 -0.0071 0.00154864)
(0.00154966 -0.0071 3.246075e-05)
(0.00154966 -0.0071 -3.246075e-05)
(0.001546941 -0.0071 -9.732531e-05)
(0.001541509 -0.0071 -0.0001620191)
(0.001533372 -0.0071 -0.0002264287)
(0.001522545 -0.0071 -0.000290441)
(0.001509047 -0.0071 -0.0003539438)
(0.001492902 -0.0071 -0.0004168257)
(0.001474138 -0.0071 -0.0004789763)
(0.001452787 -0.0071 -0.0005402867)
(0.001428888 -0.0071 -0.0006006492)
(0.001402482 -0.0071 -0.0006599579)
(0.001373616 -0.0071 -0.0007181089)
(0.001342339 -0.0071 -0.000775)
(0.001308708 -0.0071 -0.0008305315)
(0.001272781 -0.0071 -0.000884606)
(0.001234621 -0.0071 -0.0009371286)
(0.001194296 -0.0071 -0.0009880072)
(0.001151874 -0.0071 -0.001037152)
(0.001107433 -0.0071 -0.001084478)
(0.001061048 -0.0071 -0.001129901)
(0.001012802 -0.0071 -0.001173342)
(0.0009627791 -0.0071 -0.001214725)
(0.0009110671 -0.0071 -0.001253976)
(0.0008577569 -0.0071 -0.001291028)
(0.0008029419 -0.0071 -0.001325815)
(0.0007467182 -0.0071 -0.001358275)
(0.0006891845 -0.0071 -0.001388353)
(0.0006304418 -0.0071 -0.001415995)
(0.0005705931 -0.0071 -0.001441154)
(0.0005097433 -0.0071 -0.001463783)
(0.0004479993 -0.0071 -0.001483845)
(0.0003854693 -0.0071 -0.001501304)
(0.0003222631 -0.0071 -0.001516129)
(0.0002584916 -0.0071 -0.001528294)
(-0.03181366 -0.0071 -0.001498648)
(-0.03187721 -0.0071 -0.001494596)
(-0.03194053 -0.0071 -0.001487851)
(-0.0320035 -0.0071 -0.001478424)
(-0.03206602 -0.0071 -0.001466333)
(-0.03212797 -0.0071 -0.001451599)
(-0.03218923 -0.0071 -0.00143425)
(-0.03224971 -0.0071 -0.001414316)
(-0.03230928 -0.0071 -0.001391834)
(-0.03236785 -0.0071 -0.001366843)
(-0.03242531 -0.0071 -0.001339389)
(-0.03248154 -0.0071 -0.001309521)
(-0.03253646 -0.0071 -0.001277294)
(0.0001942665 -0.0071 -0.001537778)
(-0.03258996 -0.0071 -0.001242764)
(-0.03264195 -0.0071 -0.001205996)
(-0.03269233 -0.0071 -0.001167054)
(-0.03274101 -0.0071 -0.001126008)
(-0.03278791 -0.0071 -0.001082934)
(-0.03283293 -0.0071 -0.001037908)
(-0.03287601 -0.0071 -0.0009910121)
(-0.03291705 -0.0071 -0.00094233)
(-0.032956 -0.0071 -0.0008919498)
(-0.03299276 -0.0071 -0.0008399622)
(-0.03302729 -0.0071 -0.0007864609)
(-0.03305952 -0.0071 -0.0007315424)
(-0.03308939 -0.0071 -0.0006753056)
(-0.03311684 -0.0071 -0.0006178519)
(-0.03314183 -0.0071 -0.0005592847)
(-0.03316432 -0.0071 -0.0004997097)
(-0.03318425 -0.0071 -0.0004392342)
(-0.0332016 -0.0071 -0.0003779671)
(-0.03321633 -0.0071 -0.0003160189)
(-0.03322842 -0.0071 -0.0002535012)
(-0.03323785 -0.0071 -0.0001905267)
(-0.0332446 -0.0071 -0.0001272089)
(-0.03324865 -0.0071 -6.36618e-05)
(-0.03175 -0.0071 -0.0015)
(0.0001297007 -0.0071 -0.001544564)
(6.490726e-05 -0.0071 -0.00154864)
(-0.03168634 -0.0071 -0.001498648)
(-0.03162279 -0.0071 -0.001494596)
(-0.03155947 -0.0071 -0.001487851)
(-0.0314965 -0.0071 -0.001478424)
(-0.03143398 -0.0071 -0.001466333)
(-0.03137203 -0.0071 -0.001451599)
(-0.03131077 -0.0071 -0.00143425)
(-0.03125029 -0.0071 -0.001414316)
(-0.03119072 -0.0071 -0.001391834)
(-0.03113215 -0.0071 -0.001366843)
(-0.03107469 -0.0071 -0.001339389)
(0.007892567 -0.0071 0.001084478)
(0.007938952 -0.0071 0.001129901)
(0.007848126 -0.0071 0.001037152)
(0.007987198 -0.0071 0.001173342)
(0.007805704 -0.0071 0.0009880072)
(0.008037221 -0.0071 0.001214725)
(0.007765379 -0.0071 0.0009371286)
(0.008088933 -0.0071 0.001253976)
(0.007727219 -0.0071 0.000884606)
(0.008142243 -0.0071 0.001291028)
(0.007691292 -0.0071 0.0008305315)
(0.008197058 -0.0071 0.001325815)
(0.007657661 -0.0071 0.000775)
(0.008253282 -0.0071 0.001358275)
(0.007626384 -0.0071 0.0007181089)
(0.008310815 -0.0071 0.001388353)
(0.007597518 -0.0071 0.0006599579)
(0.008369558 -0.0071 0.001415995)
(0.007571112 -0.0071 0.0006006492)
(0.008429407 -0.0071 0.001441154)
(0.007547213 -0.0071 0.0005402867)
(0.008490257 -0.0071 0.001463783)
(0.007525862 -0.0071 0.0004789763)
(0.008552001 -0.0071 0.001483845)
(0.007507098 -0.0071 0.0004168257)
(0.008614531 -0.0071 0.001501304)
(0.007490953 -0.0071 0.0003539438)
(0.008677737 -0.0071 0.001516129)
(0.007477455 -0.0071 0.000290441)
(0.008741508 -0.0071 0.001528294)
(0.007466628 -0.0071 0.0002264287)
(0.008805733 -0.0071 0.001537778)
(0.007458491 -0.0071 0.0001620191)
(0.008870299 -0.0071 0.001544564)
(0.007453059 -0.0071 9.732531e-05)
(0.008935093 -0.0071 0.00154864)
(0.00745034 -0.0071 3.246075e-05)
(0.00745034 -0.0071 -3.246075e-05)
(0.007453059 -0.0071 -9.732531e-05)
(0.007458491 -0.0071 -0.0001620191)
(0.007466628 -0.0071 -0.0002264287)
(0.007477455 -0.0071 -0.000290441)
(0.007490953 -0.0071 -0.0003539438)
(0.007507098 -0.0071 -0.0004168257)
(0.007525862 -0.0071 -0.0004789763)
(0.007547213 -0.0071 -0.0005402867)
(0.007571112 -0.0071 -0.0006006492)
(0.007597518 -0.0071 -0.0006599579)
(-0.03071209 -0.0071 0.001082934)
(-0.03066707 -0.0071 0.001037908)
(-0.02360743 -0.0071 0.001084478)
(-0.02356105 -0.0071 0.001129901)
(-0.03075899 -0.0071 0.001126008)
(-0.03062399 -0.0071 0.0009910121)
(0.007626384 -0.0071 -0.0007181089)
(-0.02365187 -0.0071 0.001037152)
(-0.0235128 -0.0071 0.001173342)
(-0.03080767 -0.0071 0.001167054)
(-0.0236943 -0.0071 0.0009880072)
(-0.03058295 -0.0071 0.00094233)
(-0.02346278 -0.0071 0.001214725)
(0.007657661 -0.0071 -0.000775)
(-0.03085805 -0.0071 0.001205996)
(-0.030544 -0.0071 0.0008919498)
(0.007691292 -0.0071 -0.0008305315)
(-0.02373462 -0.0071 0.0009371286)
(-0.03091004 -0.0071 0.001242764)
(-0.02341107 -0.0071 0.001253976)
(-0.02377278 -0.0071 0.000884606)
(-0.03050724 -0.0071 0.0008399622)
(-0.02335776 -0.0071 0.001291028)
(-0.03096354 -0.0071 0.001277294)
(-0.03047271 -0.0071 0.0007864609)
(-0.02380871 -0.0071 0.0008305315)
(0.007727219 -0.0071 -0.000884606)
(-0.03101846 -0.0071 0.001309521)
(-0.02330294 -0.0071 0.001325815)
(-0.03044048 -0.0071 0.0007315424)
(-0.02384234 -0.0071 0.000775)
(0.007765379 -0.0071 -0.0009371286)
(-0.02324672 -0.0071 0.001358275)
(-0.02387362 -0.0071 0.0007181089)
(0.007805704 -0.0071 -0.0009880072)
(-0.03041061 -0.0071 0.0006753056)
(-0.02318918 -0.0071 0.001388353)
(-0.03038316 -0.0071 0.0006178519)
(-0.02390248 -0.0071 0.0006599579)
(0.007848126 -0.0071 -0.001037152)
(-0.02313044 -0.0071 0.001415995)
(-0.03035817 -0.0071 0.0005592847)
(-0.02392889 -0.0071 0.0006006492)
(0.007892567 -0.0071 -0.001084478)
(-0.02307059 -0.0071 0.001441154)
(-0.03033568 -0.0071 0.0004997097)
(-0.02395279 -0.0071 0.0005402867)
(-0.02300974 -0.0071 0.001463783)
(0.007938952 -0.0071 -0.001129901)
(-0.03031575 -0.0071 0.0004392342)
(-0.02397414 -0.0071 0.0004789763)
(-0.022948 -0.0071 0.001483845)
(0.007987198 -0.0071 -0.001173342)
(-0.0302984 -0.0071 0.0003779671)
(-0.0239929 -0.0071 0.0004168257)
(-0.02288547 -0.0071 0.001501304)
(-0.03028367 -0.0071 0.0003160189)
(-0.02400905 -0.0071 0.0003539438)
(0.008037221 -0.0071 -0.001214725)
(-0.02282226 -0.0071 0.001516129)
(0.008088933 -0.0071 -0.001253976)
(-0.02402255 -0.0071 0.000290441)
(-0.03027158 -0.0071 0.0002535012)
(-0.02275849 -0.0071 0.001528294)
(0.008142243 -0.0071 -0.001291028)
(-0.03026215 -0.0071 0.0001905267)
(-0.02403337 -0.0071 0.0002264287)
(0.008197058 -0.0071 -0.001325815)
(-0.02269427 -0.0071 0.001537778)
(-0.0302554 -0.0071 0.0001272089)
(-0.02404151 -0.0071 0.0001620191)
(-0.0226297 -0.0071 0.001544564)
(0.008253282 -0.0071 -0.001358275)
(-0.03025135 -0.0071 6.36618e-05)
(-0.02404694 -0.0071 9.732531e-05)
(-0.02256491 -0.0071 0.00154864)
(-0.02404966 -0.0071 3.246075e-05)
(-0.03025 -0.0071 -9.611626e-19)
(0.008310815 -0.0071 -0.001388353)
(-0.0225 -0.0071 0.00155)
(0.008369558 -0.0071 -0.001415995)
(-0.03025135 -0.0071 -6.36618e-05)
(-0.02404966 -0.0071 -3.246075e-05)
(-0.02243509 -0.0071 0.00154864)
(-0.0302554 -0.0071 -0.0001272089)
(0.008429407 -0.0071 -0.001441154)
(-0.02404694 -0.0071 -9.732531e-05)
(-0.02404151 -0.0071 -0.0001620191)
(-0.03026215 -0.0071 -0.0001905267)
(0.008490257 -0.0071 -0.001463783)
(-0.02403337 -0.0071 -0.0002264287)
(-0.03027158 -0.0071 -0.0002535012)
(0.008552001 -0.0071 -0.001483845)
(0.008614531 -0.0071 -0.001501304)
(-0.03028367 -0.0071 -0.0003160189)
(-0.02402255 -0.0071 -0.000290441)
(0.008677737 -0.0071 -0.001516129)
(-0.0302984 -0.0071 -0.0003779671)
(-0.02400905 -0.0071 -0.0003539438)
(0.008741508 -0.0071 -0.001528294)
(-0.0239929 -0.0071 -0.0004168257)
(-0.03031575 -0.0071 -0.0004392342)
(0.008805733 -0.0071 -0.001537778)
(-0.03033568 -0.0071 -0.0004997097)
(-0.02397414 -0.0071 -0.0004789763)
(-0.02395279 -0.0071 -0.0005402867)
(0.008870299 -0.0071 -0.001544564)
(-0.03035817 -0.0071 -0.0005592847)
(0.008935093 -0.0071 -0.00154864)
(-0.03038316 -0.0071 -0.0006178519)
(-0.02392889 -0.0071 -0.0006006492)
(-0.03041061 -0.0071 -0.0006753056)
(-0.02390248 -0.0071 -0.0006599579)
(-0.03044048 -0.0071 -0.0007315424)
(-0.02387362 -0.0071 -0.0007181089)
(-0.02384234 -0.0071 -0.000775)
(-0.03047271 -0.0071 -0.0007864609)
(-0.03050724 -0.0071 -0.0008399622)
(-0.02380871 -0.0071 -0.0008305315)
(-0.02377278 -0.0071 -0.000884606)
(-0.030544 -0.0071 -0.0008919498)
(-0.02373462 -0.0071 -0.0009371286)
(-0.03058295 -0.0071 -0.00094233)
(-0.0236943 -0.0071 -0.0009880072)
(-0.03062399 -0.0071 -0.0009910121)
(-0.02365187 -0.0071 -0.001037152)
(-0.03066707 -0.0071 -0.001037908)
(-0.02360743 -0.0071 -0.001084478)
(-0.03071209 -0.0071 -0.001082934)
(-0.03075899 -0.0071 -0.001126008)
(-0.02356105 -0.0071 -0.001129901)
(-0.0235128 -0.0071 -0.001173342)
(-0.03080767 -0.0071 -0.001167054)
(-0.02346278 -0.0071 -0.001214725)
(-0.03085805 -0.0071 -0.001205996)
(-0.03091004 -0.0071 -0.001242764)
(-0.02341107 -0.0071 -0.001253976)
(-0.02335776 -0.0071 -0.001291028)
(-0.03096354 -0.0071 -0.001277294)
(-0.02330294 -0.0071 -0.001325815)
(-0.03101846 -0.0071 -0.001309521)
(-0.02324672 -0.0071 -0.001358275)
(-0.02318918 -0.0071 -0.001388353)
(-0.02313044 -0.0071 -0.001415995)
(-0.02307059 -0.0071 -0.001441154)
(-0.02300974 -0.0071 -0.001463783)
(0.01239257 -0.0071 0.001084478)
(0.01243895 -0.0071 0.001129901)
(0.01006105 -0.0071 0.001129901)
(0.01010743 -0.0071 0.001084478)
(0.01234813 -0.0071 0.001037152)
(0.01015187 -0.0071 0.001037152)
(-0.022948 -0.0071 -0.001483845)
(0.0124872 -0.0071 0.001173342)
(0.0100128 -0.0071 0.001173342)
(0.0123057 -0.0071 0.0009880072)
(0.0101943 -0.0071 0.0009880072)
(0.009962779 -0.0071 0.001214725)
(0.01253722 -0.0071 0.001214725)
(0.01226538 -0.0071 0.0009371286)
(0.01023462 -0.0071 0.0009371286)
(0.009911067 -0.0071 0.001253976)
(0.01258893 -0.0071 0.001253976)
(0.01222722 -0.0071 0.000884606)
(0.01027278 -0.0071 0.000884606)
(-0.02288547 -0.0071 -0.001501304)
(0.009857757 -0.0071 0.001291028)
(0.01264224 -0.0071 0.001291028)
(0.01219129 -0.0071 0.0008305315)
(0.01030871 -0.0071 0.0008305315)
(0.009802942 -0.0071 0.001325815)
(0.01269706 -0.0071 0.001325815)
(0.01215766 -0.0071 0.000775)
(0.01034234 -0.0071 0.000775)
(0.009746718 -0.0071 0.001358275)
(-0.02282226 -0.0071 -0.001516129)
(0.01275328 -0.0071 0.001358275)
(0.01037362 -0.0071 0.0007181089)
(0.01212638 -0.0071 0.0007181089)
(0.009689185 -0.0071 0.001388353)
(0.01281082 -0.0071 0.001388353)
(0.01209752 -0.0071 0.0006599579)
(0.01040248 -0.0071 0.0006599579)
(0.01286956 -0.0071 0.001415995)
(0.009630442 -0.0071 0.001415995)
(0.01207111 -0.0071 0.0006006492)
(0.01042889 -0.0071 0.0006006492)
(-0.02275849 -0.0071 -0.001528294)
(0.01292941 -0.0071 0.001441154)
(0.009570593 -0.0071 0.001441154)
(0.01045279 -0.0071 0.0005402867)
(0.01204721 -0.0071 0.0005402867)
(0.01299026 -0.0071 0.001463783)
(0.009509743 -0.0071 0.001463783)
(0.01202586 -0.0071 0.0004789763)
(0.01047414 -0.0071 0.0004789763)
(0.009447999 -0.0071 0.001483845)
(0.013052 -0.0071 0.001483845)
(-0.02269427 -0.0071 -0.001537778)
(0.0120071 -0.0071 0.0004168257)
(0.0104929 -0.0071 0.0004168257)
(0.009385469 -0.0071 0.001501304)
(0.01311453 -0.0071 0.001501304)
(0.01199095 -0.0071 0.0003539438)
(0.01050905 -0.0071 0.0003539438)
(0.009322263 -0.0071 0.001516129)
(0.01317774 -0.0071 0.001516129)
(-0.0226297 -0.0071 -0.001544564)
(0.01197745 -0.0071 0.000290441)
(0.01052255 -0.0071 0.000290441)
(0.009258492 -0.0071 0.001528294)
(0.01324151 -0.0071 0.001528294)
(0.01053337 -0.0071 0.0002264287)
(0.01196663 -0.0071 0.0002264287)
(0.009194267 -0.0071 0.001537778)
(0.01330573 -0.0071 0.001537778)
(0.01195849 -0.0071 0.0001620191)
(0.01054151 -0.0071 0.0001620191)
(0.009129701 -0.0071 0.001544564)
(0.0133703 -0.0071 0.001544564)
(0.01054694 -0.0071 9.732531e-05)
(0.01195306 -0.0071 9.732531e-05)
(-0.02256491 -0.0071 -0.00154864)
(0.01343509 -0.0071 0.00154864)
(0.009064907 -0.0071 0.00154864)
(0.01195034 -0.0071 3.246075e-05)
(0.01054966 -0.0071 3.246075e-05)
(0.01054966 -0.0071 -3.246075e-05)
(0.01195034 -0.0071 -3.246075e-05)
(0.01195306 -0.0071 -9.732531e-05)
(0.01054694 -0.0071 -9.732531e-05)
(-0.0225 -0.0071 -0.00155)
(0.01195849 -0.0071 -0.0001620191)
(0.01054151 -0.0071 -0.0001620191)
(0.01196663 -0.0071 -0.0002264287)
(0.01053337 -0.0071 -0.0002264287)
(0.01197745 -0.0071 -0.000290441)
(0.01052255 -0.0071 -0.000290441)
(-0.02243509 -0.0071 -0.00154864)
(0.01050905 -0.0071 -0.0003539438)
(0.01199095 -0.0071 -0.0003539438)
(0.0104929 -0.0071 -0.0004168257)
(0.0120071 -0.0071 -0.0004168257)
(0.01202586 -0.0071 -0.0004789763)
(0.01047414 -0.0071 -0.0004789763)
(0.01204721 -0.0071 -0.0005402867)
(0.01045279 -0.0071 -0.0005402867)
(0.01042889 -0.0071 -0.0006006492)
(0.01207111 -0.0071 -0.0006006492)
(0.01209752 -0.0071 -0.0006599579)
(0.01040248 -0.0071 -0.0006599579)
(0.01037362 -0.0071 -0.0007181089)
(0.01212638 -0.0071 -0.0007181089)
(0.01215766 -0.0071 -0.000775)
(0.01034234 -0.0071 -0.000775)
(0.01219129 -0.0071 -0.0008305315)
(0.01030871 -0.0071 -0.0008305315)
(0.01027278 -0.0071 -0.000884606)
(0.01222722 -0.0071 -0.000884606)
(0.01226538 -0.0071 -0.0009371286)
(0.01023462 -0.0071 -0.0009371286)
(0.0123057 -0.0071 -0.0009880072)
(0.0101943 -0.0071 -0.0009880072)
(0.01234813 -0.0071 -0.001037152)
(0.01015187 -0.0071 -0.001037152)
(0.01239257 -0.0071 -0.001084478)
(0.01010743 -0.0071 -0.001084478)
(0.01006105 -0.0071 -0.001129901)
(0.01243895 -0.0071 -0.001129901)
(0.0100128 -0.0071 -0.001173342)
(0.0124872 -0.0071 -0.001173342)
(0.009962779 -0.0071 -0.001214725)
(0.01253722 -0.0071 -0.001214725)
(0.009911067 -0.0071 -0.001253976)
(0.01258893 -0.0071 -0.001253976)
(0.01264224 -0.0071 -0.001291028)
(0.009857757 -0.0071 -0.001291028)
(0.01269706 -0.0071 -0.001325815)
(0.009802942 -0.0071 -0.001325815)
(0.01275328 -0.0071 -0.001358275)
(0.009746718 -0.0071 -0.001358275)
(0.009689185 -0.0071 -0.001388353)
(0.01281082 -0.0071 -0.001388353)
(0.01286956 -0.0071 -0.001415995)
(0.009630442 -0.0071 -0.001415995)
(0.009570593 -0.0071 -0.001441154)
(0.01292941 -0.0071 -0.001441154)
(0.01299026 -0.0071 -0.001463783)
(0.009509743 -0.0071 -0.001463783)
(0.013052 -0.0071 -0.001483845)
(0.009447999 -0.0071 -0.001483845)
(0.01311453 -0.0071 -0.001501304)
(0.009385469 -0.0071 -0.001501304)
(0.01317774 -0.0071 -0.001516129)
(0.009322263 -0.0071 -0.001516129)
(0.01324151 -0.0071 -0.001528294)
(0.009258492 -0.0071 -0.001528294)
(0.009194267 -0.0071 -0.001537778)
(0.01330573 -0.0071 -0.001537778)
(0.0133703 -0.0071 -0.001544564)
(0.009129701 -0.0071 -0.001544564)
(0.01343509 -0.0071 -0.00154864)
(0.009064907 -0.0071 -0.00154864)
(-0.01910743 -0.0071 0.001084478)
(-0.01906105 -0.0071 0.001129901)
(-0.02143895 -0.0071 0.001129901)
(-0.02139257 -0.0071 0.001084478)
(-0.01915187 -0.0071 0.001037152)
(-0.02134813 -0.0071 0.001037152)
(-0.0190128 -0.0071 0.001173342)
(-0.0214872 -0.0071 0.001173342)
(-0.0191943 -0.0071 0.0009880072)
(-0.0213057 -0.0071 0.0009880072)
(-0.01896278 -0.0071 0.001214725)
(-0.02153722 -0.0071 0.001214725)
(-0.01923462 -0.0071 0.0009371286)
(-0.02126538 -0.0071 0.0009371286)
(-0.01891107 -0.0071 0.001253976)
(-0.02158893 -0.0071 0.001253976)
(-0.01927278 -0.0071 0.000884606)
(-0.02122722 -0.0071 0.000884606)
(-0.01885776 -0.0071 0.001291028)
(-0.02164224 -0.0071 0.001291028)
(0.01689257 -0.0071 0.001084478)
(0.01693895 -0.0071 0.001129901)
(-0.01930871 -0.0071 0.0008305315)
(-0.02119129 -0.0071 0.0008305315)
(0.01456105 -0.0071 0.001129901)
(0.01460743 -0.0071 0.001084478)
(0.01684813 -0.0071 0.001037152)
(0.01465187 -0.0071 0.001037152)
(-0.01880294 -0.0071 0.001325815)
(-0.02169706 -0.0071 0.001325815)
(0.0169872 -0.0071 0.001173342)
(-0.01934234 -0.0071 0.000775)
(0.0145128 -0.0071 0.001173342)
(0.0168057 -0.0071 0.0009880072)
(0.0146943 -0.0071 0.0009880072)
(-0.02115766 -0.0071 0.000775)
(-0.01874672 -0.0071 0.001358275)
(0.01703722 -0.0071 0.001214725)
(0.01446278 -0.0071 0.001214725)
(-0.02175328 -0.0071 0.001358275)
(0.01676538 -0.0071 0.0009371286)
(0.01473462 -0.0071 0.0009371286)
(-0.01937362 -0.0071 0.0007181089)
(-0.02112638 -0.0071 0.0007181089)
(-0.01868918 -0.0071 0.001388353)
(0.01708893 -0.0071 0.001253976)
(0.01441107 -0.0071 0.001253976)
(-0.02181082 -0.0071 0.001388353)
(0.01672722 -0.0071 0.000884606)
(0.01477278 -0.0071 0.000884606)
(-0.01940248 -0.0071 0.0006599579)
(-0.02109752 -0.0071 0.0006599579)
(0.01714224 -0.0071 0.001291028)
(0.01435776 -0.0071 0.001291028)
(-0.01863044 -0.0071 0.001415995)
(-0.02186956 -0.0071 0.001415995)
(0.01669129 -0.0071 0.0008305315)
(0.01480871 -0.0071 0.0008305315)
(-0.01942889 -0.0071 0.0006006492)
(0.01719706 -0.0071 0.001325815)
(0.01430294 -0.0071 0.001325815)
(-0.02107111 -0.0071 0.0006006492)
(-0.01857059 -0.0071 0.001441154)
(0.01665766 -0.0071 0.000775)
(0.01484234 -0.0071 0.000775)
(-0.02192941 -0.0071 0.001441154)
(0.01725328 -0.0071 0.001358275)
(0.01424672 -0.0071 0.001358275)
(-0.01945279 -0.0071 0.0005402867)
(-0.02104721 -0.0071 0.0005402867)
(0.01487362 -0.0071 0.0007181089)
(-0.01850974 -0.0071 0.001463783)
(-0.02199026 -0.0071 0.001463783)
(0.01662638 -0.0071 0.0007181089)
(0.01731082 -0.0071 0.001388353)
(0.01418918 -0.0071 0.001388353)
(-0.01947414 -0.0071 0.0004789763)
(0.01659752 -0.0071 0.0006599579)
(0.01490248 -0.0071 0.0006599579)
(-0.02102586 -0.0071 0.0004789763)
(-0.018448 -0.0071 0.001483845)
(0.01413044 -0.0071 0.001415995)
(0.01736956 -0.0071 0.001415995)
(-0.022052 -0.0071 0.001483845)
(-0.0194929 -0.0071 0.0004168257)
(0.01657111 -0.0071 0.0006006492)
(0.01492889 -0.0071 0.0006006492)
(-0.0210071 -0.0071 0.0004168257)
(0.01742941 -0.0071 0.001441154)
(0.01407059 -0.0071 0.001441154)
(-0.01838547 -0.0071 0.001501304)
(-0.02211453 -0.0071 0.001501304)
(0.01654721 -0.0071 0.0005402867)
(0.01495279 -0.0071 0.0005402867)
(0.01749026 -0.0071 0.001463783)
(-0.01950905 -0.0071 0.0003539438)
(0.01400974 -0.0071 0.001463783)
(0.01652586 -0.0071 0.0004789763)
(-0.02099095 -0.0071 0.0003539438)
(0.01497414 -0.0071 0.0004789763)
(0.017552 -0.0071 0.001483845)
(-0.01832226 -0.0071 0.001516129)
(-0.02217774 -0.0071 0.001516129)
(0.013948 -0.0071 0.001483845)
(-0.01952255 -0.0071 0.000290441)
(-0.02097745 -0.0071 0.000290441)
(0.0165071 -0.0071 0.0004168257)
(0.0149929 -0.0071 0.0004168257)
(0.01761453 -0.0071 0.001501304)
(-0.02224151 -0.0071 0.001528294)
(-0.01825849 -0.0071 0.001528294)
(0.01388547 -0.0071 0.001501304)
(0.01649095 -0.0071 0.0003539438)
(0.01500905 -0.0071 0.0003539438)
(0.01767774 -0.0071 0.001516129)
(0.01382226 -0.0071 0.001516129)
(-0.01953337 -0.0071 0.0002264287)
(-0.02096663 -0.0071 0.0002264287)
(-0.01819427 -0.0071 0.001537778)
(-0.02230573 -0.0071 0.001537778)
(0.01647745 -0.0071 0.000290441)
(0.01502255 -0.0071 0.000290441)
(0.01774151 -0.0071 0.001528294)
(0.01375849 -0.0071 0.001528294)
(-0.01954151 -0.0071 0.0001620191)
(0.01646663 -0.0071 0.0002264287)
(-0.02095849 -0.0071 0.0001620191)
(-0.0181297 -0.0071 0.001544564)
(0.01503337 -0.0071 0.0002264287)
(0.01780573 -0.0071 0.001537778)
(0.01369427 -0.0071 0.001537778)
(-0.0223703 -0.0071 0.001544564)
(0.01645849 -0.0071 0.0001620191)
(-0.01954694 -0.0071 9.732531e-05)
(0.01504151 -0.0071 0.0001620191)
(0.0178703 -0.0071 0.001544564)
(0.0136297 -0.0071 0.001544564)
(-0.02095306 -0.0071 9.732531e-05)
(-0.01806491 -0.0071 0.00154864)
(0.01645306 -0.0071 9.732531e-05)
(0.01504694 -0.0071 9.732531e-05)
(0.01793509 -0.0071 0.00154864)
(0.01356491 -0.0071 0.00154864)
(-0.01954966 -0.0071 3.246075e-05)
(-0.02095034 -0.0071 3.246075e-05)
(0.01645034 -0.0071 3.246075e-05)
(-0.02095034 -0.0071 -3.246075e-05)
(0.01504966 -0.0071 3.246075e-05)
(-0.01954966 -0.0071 -3.246075e-05)
(0.01645034 -0.0071 -3.246075e-05)
(0.01504966 -0.0071 -3.246075e-05)
(-0.02095306 -0.0071 -9.732531e-05)
(-0.01954694 -0.0071 -9.732531e-05)
(0.01645306 -0.0071 -9.732531e-05)
(0.01504694 -0.0071 -9.732531e-05)
(-0.01954151 -0.0071 -0.0001620191)
(-0.02095849 -0.0071 -0.0001620191)
(0.01645849 -0.0071 -0.0001620191)
(0.01504151 -0.0071 -0.0001620191)
(0.01503337 -0.0071 -0.0002264287)
(0.01646663 -0.0071 -0.0002264287)
(-0.02096663 -0.0071 -0.0002264287)
(0.01502255 -0.0071 -0.000290441)
(0.01647745 -0.0071 -0.000290441)
(-0.01953337 -0.0071 -0.0002264287)
(0.01500905 -0.0071 -0.0003539438)
(-0.02097745 -0.0071 -0.000290441)
(0.01649095 -0.0071 -0.0003539438)
(-0.01952255 -0.0071 -0.000290441)
(0.0149929 -0.0071 -0.0004168257)
(0.0165071 -0.0071 -0.0004168257)
(-0.01950905 -0.0071 -0.0003539438)
(-0.02099095 -0.0071 -0.0003539438)
(0.01497414 -0.0071 -0.0004789763)
(-0.0210071 -0.0071 -0.0004168257)
(0.01652586 -0.0071 -0.0004789763)